
*** ChampSim Multicore Out-of-Order Simulator ***

Warmup Instructions: 25000000
Simulation Instructions: 25000000
Number of CPUs: 1
Off-chip DRAM Size: 4 GiB Channels: 1 Width: 64-bit Data Rate: 3200 MT/s

VirtualMemory physical capacity: 8588881920 num_ppages: 2096895
VirtualMemory page size: 4096 log2_page_size: 12

CPU 0 runs ipc1_public/client_004.champsimtrace.xz
Basic BTB sets: 1024 ways: 8 indirect buffer size: 4096 RAS size: 64
CPU 0 Improved Entangling prefetcher
cpu0_L1D next line prefetcher
WARNING: The extended signature CACHE::prefetch_line(ip, base_addr, pf_addr, fill_this_level, prefetch_metadata) is deprecated.
WARNING: Use CACHE::prefetch_line(pf_addr, fill_this_level, prefetch_metadata) instead.
Heartbeat CPU 0 instructions: 10000003 cycles: 2754801 heartbeat IPC: 3.63003 cumulative IPC: 3.63003 (Simulation time: 0 hr 0 min 26 sec) 
Heartbeat CPU 0 instructions: 20000003 cycles: 5380611 heartbeat IPC: 3.80835 cumulative IPC: 3.71705 (Simulation time: 0 hr 0 min 51 sec) 

Warmup complete CPU 0 instructions: 25000001 cycles: 6795233 (Simulation time: 0 hr 1 min 4 sec) 

Heartbeat CPU 0 instructions: 30000004 cycles: 11022137 heartbeat IPC: 1.77257 cumulative IPC: 1.1829 (Simulation time: 0 hr 1 min 22 sec) 
Heartbeat CPU 0 instructions: 40000004 cycles: 20615320 heartbeat IPC: 1.04241 cumulative IPC: 1.08538 (Simulation time: 0 hr 1 min 58 sec) 
Heartbeat CPU 0 instructions: 50000004 cycles: 28086669 heartbeat IPC: 1.33845 cumulative IPC: 1.17418 (Simulation time: 0 hr 2 min 35 sec) 
Finished CPU 0 instructions: 25000003 cycles: 21291436 cumulative IPC: 1.17418 (Simulation time: 0 hr 2 min 35 sec) 

ChampSim completed all CPUs

Region of Interest Statistics

CPU 0 cumulative IPC: 1.17418 instructions: 25000003 cycles: 21291436
cpu0_DTLB TOTAL     ACCESS:    5589907  HIT:    5465920  MISS:     123987
cpu0_DTLB LOAD      ACCESS:    3969435  HIT:    3853549  MISS:     115886
cpu0_DTLB RFO       ACCESS:    1620472  HIT:    1612371  MISS:       8101
cpu0_DTLB PREFETCH  ACCESS:          0  HIT:          0  MISS:          0
cpu0_DTLB WRITEBACK ACCESS:          0  HIT:          0  MISS:          0
cpu0_DTLB TRANSLATION ACCESS:          0  HIT:          0  MISS:          0
cpu0_DTLB PREFETCH  REQUESTED:          0  ISSUED:          0  USEFUL:          0  USELESS:          0
cpu0_DTLB AVERAGE MISS LATENCY: 10.353 cycles
cpu0_ITLB TOTAL     ACCESS:    1983997  HIT:    1930567  MISS:      53430
cpu0_ITLB LOAD      ACCESS:    1983997  HIT:    1930567  MISS:      53430
cpu0_ITLB RFO       ACCESS:          0  HIT:          0  MISS:          0
cpu0_ITLB PREFETCH  ACCESS:          0  HIT:          0  MISS:          0
cpu0_ITLB WRITEBACK ACCESS:          0  HIT:          0  MISS:          0
cpu0_ITLB TRANSLATION ACCESS:          0  HIT:          0  MISS:          0
cpu0_ITLB PREFETCH  REQUESTED:          0  ISSUED:          0  USEFUL:          0  USELESS:          0
cpu0_ITLB AVERAGE MISS LATENCY: 10.4487 cycles
cpu0_L1I TOTAL     ACCESS:    3024513  HIT:    2739556  MISS:     284957
cpu0_L1I LOAD      ACCESS:    2579813  HIT:    2323589  MISS:     256224
cpu0_L1I RFO       ACCESS:          0  HIT:          0  MISS:          0
cpu0_L1I PREFETCH  ACCESS:     444700  HIT:     415967  MISS:      28733
cpu0_L1I WRITEBACK ACCESS:          0  HIT:          0  MISS:          0
cpu0_L1I TRANSLATION ACCESS:          0  HIT:          0  MISS:          0
cpu0_L1I PREFETCH  REQUESTED:     488373  ISSUED:     461832  USEFUL:      30715  USELESS:       1750
cpu0_L1I AVERAGE MISS LATENCY: 27.2546 cycles
cpu0_STLB TOTAL     ACCESS:     177417  HIT:     171802  MISS:       5615
cpu0_STLB LOAD      ACCESS:     169316  HIT:     164080  MISS:       5236
cpu0_STLB RFO       ACCESS:       8101  HIT:       7722  MISS:        379
cpu0_STLB PREFETCH  ACCESS:          0  HIT:          0  MISS:          0
cpu0_STLB WRITEBACK ACCESS:          0  HIT:          0  MISS:          0
cpu0_STLB TRANSLATION ACCESS:          0  HIT:          0  MISS:          0
cpu0_STLB PREFETCH  REQUESTED:          0  ISSUED:          0  USEFUL:          0  USELESS:          0
cpu0_STLB AVERAGE MISS LATENCY: 43.1993 cycles
cpu0_L1D TOTAL     ACCESS:   10780920  HIT:   10362869  MISS:     418051
cpu0_L1D LOAD      ACCESS:    4213806  HIT:    4023937  MISS:     189869
cpu0_L1D RFO       ACCESS:    2449802  HIT:    2400847  MISS:      48955
cpu0_L1D PREFETCH  ACCESS:    4111759  HIT:    3933674  MISS:     178085
cpu0_L1D WRITEBACK ACCESS:          0  HIT:          0  MISS:          0
cpu0_L1D TRANSLATION ACCESS:       5553  HIT:       4411  MISS:       1142
cpu0_L1D PREFETCH  REQUESTED:    4226875  ISSUED:    4180388  USEFUL:     138500  USELESS:      47710
cpu0_L1D AVERAGE MISS LATENCY: 34.5874 cycles
cpu0_L2C TOTAL     ACCESS:     808125  HIT:     621802  MISS:     186323
cpu0_L2C LOAD      ACCESS:     435479  HIT:     322537  MISS:     112942
cpu0_L2C RFO       ACCESS:      47687  HIT:      23458  MISS:      24229
cpu0_L2C PREFETCH  ACCESS:     218585  HIT:     169974  MISS:      48611
cpu0_L2C WRITEBACK ACCESS:     105232  HIT:     104888  MISS:        344
cpu0_L2C TRANSLATION ACCESS:       1142  HIT:        945  MISS:        197
cpu0_L2C PREFETCH  REQUESTED:          0  ISSUED:          0  USEFUL:          0  USELESS:          0
cpu0_L2C AVERAGE MISS LATENCY: 80.4321 cycles
LLC TOTAL     ACCESS:     224075  HIT:     167214  MISS:      56861
LLC LOAD      ACCESS:     112942  HIT:      84358  MISS:      28584
LLC RFO       ACCESS:      24229  HIT:      10277  MISS:      13952
LLC PREFETCH  ACCESS:      48611  HIT:      34345  MISS:      14266
LLC WRITEBACK ACCESS:      38096  HIT:      38068  MISS:         28
LLC TRANSLATION ACCESS:        197  HIT:        166  MISS:         31
LLC PREFETCH  REQUESTED:          0  ISSUED:          0  USEFUL:          0  USELESS:          0
LLC AVERAGE MISS LATENCY: 194.871 cycles
CPU 0 L1I EPI prefetcher final stats
IP accesses: 279f 9e7c0 36307 / 5643928
IP misses: 278e 9e380 844 / 505281
IP hits: 0 0 0 / 0
IP late: 266c 99b00 537 / 27568
IP wrong: 2304 8c100 329 / 6135
miss rate: 0.0895265
coverage: 0
coverage_late: 0.0545597
accuracy: 0
accuracy_late: 0.817969
discarded: 0
evicts entangled j table: 0
evicts entangled k table: 2
max bb size: 18
max xpq size: 0
formats: 2 50 657 90 89 373 0 
history table size: 0 bytes; 0 KB
cycles_no_operate: 0 %
bb_found_hist: 0 302713 92280 37867 13599 2679 781 394 0 3 323 496 0 0 0 0 0 0 326 0 0 0 0 0 0 0 0 0 0 0 0 0 0 0 0 0 0 0 0 0 0 0 0 0 0 0 0 0 0 0 0 0 0 0 0 0 0 0 0 0 0 0 0 0 
bb_found_summary: 690690 451461 1.5299
entangled_found_hist: 0 28216 11348 3459 339 329 91 0 
entangled_found_summary: 64836 43782 1.48088
bb_ent_found_hist: 0 18722 9356 3642 1455 1157 9 42 0 2 326 0 0 0 0 0 0 0 286 0 0 0 0 0 0 0 0 0 0 0 0 0 0 0 0 0 0 0 0 0 0 0 0 0 0 0 0 0 0 0 0 0 0 0 0 0 0 0 0 0 0 0 0 0 
bb_ent_found_summary: 68739 34997 1.96414
percent_wrong_path_info_recorded: 99.7101%

DRAM Statistics
 CHANNEL 0
 RQ ROW_BUFFER_HIT:      10491  ROW_BUFFER_MISS:      46337
 DBUS AVG_CONGESTED_CYCLE:    3.80895
 WQ ROW_BUFFER_HIT:       5104  ROW_BUFFER_MISS:      13192  FULL:          0


CPU 0 Branch Prediction Accuracy: 91.0499% MPKI: 16.0574 Average ROB Occupancy at Mispredict: 118.249
Branch type MPKI
BRANCH_DIRECT_JUMP: 0.33756
BRANCH_INDIRECT: 3.23968
BRANCH_CONDITIONAL: 9.1052
BRANCH_DIRECT_CALL: 0.54464
BRANCH_INDIRECT_CALL: 1.66768
BRANCH_RETURN: 1.16264

