
*** ChampSim Multicore Out-of-Order Simulator ***

Warmup Instructions: 25000000
Simulation Instructions: 25000000
Number of CPUs: 1
Off-chip DRAM Size: 4 GiB Channels: 1 Width: 64-bit Data Rate: 3200 MT/s

VirtualMemory physical capacity: 8588881920 num_ppages: 2096895
VirtualMemory page size: 4096 log2_page_size: 12

CPU 0 runs ipc1_public/client_003.champsimtrace.xz
Basic BTB sets: 1024 ways: 8 indirect buffer size: 4096 RAS size: 64
CPU 0 Improved Entangling prefetcher
cpu0_L1D next line prefetcher
WARNING: The extended signature CACHE::prefetch_line(ip, base_addr, pf_addr, fill_this_level, prefetch_metadata) is deprecated.
WARNING: Use CACHE::prefetch_line(pf_addr, fill_this_level, prefetch_metadata) instead.
Heartbeat CPU 0 instructions: 10000003 cycles: 2505201 heartbeat IPC: 3.9917 cumulative IPC: 3.9917 (Simulation time: 0 hr 0 min 26 sec) 
Heartbeat CPU 0 instructions: 20000001 cycles: 5013713 heartbeat IPC: 3.98643 cumulative IPC: 3.98906 (Simulation time: 0 hr 0 min 54 sec) 

Warmup complete CPU 0 instructions: 25000001 cycles: 6264225 (Simulation time: 0 hr 1 min 8 sec) 

Heartbeat CPU 0 instructions: 30000003 cycles: 9630593 heartbeat IPC: 2.16597 cumulative IPC: 1.48528 (Simulation time: 0 hr 1 min 29 sec) 
Heartbeat CPU 0 instructions: 40000000 cycles: 16130914 heartbeat IPC: 1.53839 cumulative IPC: 1.52027 (Simulation time: 0 hr 2 min 11 sec) 
Heartbeat CPU 0 instructions: 50000004 cycles: 22145242 heartbeat IPC: 1.6627 cumulative IPC: 1.57421 (Simulation time: 0 hr 2 min 50 sec) 
Finished CPU 0 instructions: 25000003 cycles: 15881017 cumulative IPC: 1.57421 (Simulation time: 0 hr 2 min 50 sec) 

ChampSim completed all CPUs

Region of Interest Statistics

CPU 0 cumulative IPC: 1.57421 instructions: 25000003 cycles: 15881017
cpu0_DTLB TOTAL     ACCESS:    5018304  HIT:    4965005  MISS:      53299
cpu0_DTLB LOAD      ACCESS:    2850326  HIT:    2802522  MISS:      47804
cpu0_DTLB RFO       ACCESS:    2167978  HIT:    2162483  MISS:       5495
cpu0_DTLB PREFETCH  ACCESS:          0  HIT:          0  MISS:          0
cpu0_DTLB WRITEBACK ACCESS:          0  HIT:          0  MISS:          0
cpu0_DTLB TRANSLATION ACCESS:          0  HIT:          0  MISS:          0
cpu0_DTLB PREFETCH  REQUESTED:          0  ISSUED:          0  USEFUL:          0  USELESS:          0
cpu0_DTLB AVERAGE MISS LATENCY: 10.3154 cycles
cpu0_ITLB TOTAL     ACCESS:    1731557  HIT:    1703504  MISS:      28053
cpu0_ITLB LOAD      ACCESS:    1731557  HIT:    1703504  MISS:      28053
cpu0_ITLB RFO       ACCESS:          0  HIT:          0  MISS:          0
cpu0_ITLB PREFETCH  ACCESS:          0  HIT:          0  MISS:          0
cpu0_ITLB WRITEBACK ACCESS:          0  HIT:          0  MISS:          0
cpu0_ITLB TRANSLATION ACCESS:          0  HIT:          0  MISS:          0
cpu0_ITLB PREFETCH  REQUESTED:          0  ISSUED:          0  USEFUL:          0  USELESS:          0
cpu0_ITLB AVERAGE MISS LATENCY: 9.36303 cycles
cpu0_L1I TOTAL     ACCESS:    7778886  HIT:    7416388  MISS:     362498
cpu0_L1I LOAD      ACCESS:    2736717  HIT:    2625738  MISS:     110979
cpu0_L1I RFO       ACCESS:          0  HIT:          0  MISS:          0
cpu0_L1I PREFETCH  ACCESS:    5042169  HIT:    4790650  MISS:     251519
cpu0_L1I WRITEBACK ACCESS:          0  HIT:          0  MISS:          0
cpu0_L1I TRANSLATION ACCESS:          0  HIT:          0  MISS:          0
cpu0_L1I PREFETCH  REQUESTED:    5491063  ISSUED:    5075185  USEFUL:     225958  USELESS:      35510
cpu0_L1I AVERAGE MISS LATENCY: 18.2297 cycles
cpu0_STLB TOTAL     ACCESS:      81352  HIT:      80565  MISS:        787
cpu0_STLB LOAD      ACCESS:      75857  HIT:      75434  MISS:        423
cpu0_STLB RFO       ACCESS:       5495  HIT:       5131  MISS:        364
cpu0_STLB PREFETCH  ACCESS:          0  HIT:          0  MISS:          0
cpu0_STLB WRITEBACK ACCESS:          0  HIT:          0  MISS:          0
cpu0_STLB TRANSLATION ACCESS:          0  HIT:          0  MISS:          0
cpu0_STLB PREFETCH  REQUESTED:          0  ISSUED:          0  USEFUL:          0  USELESS:          0
cpu0_STLB AVERAGE MISS LATENCY: 100.842 cycles
cpu0_L1D TOTAL     ACCESS:   10092360  HIT:    9877732  MISS:     214628
cpu0_L1D LOAD      ACCESS:    3220058  HIT:    3156375  MISS:      63683
cpu0_L1D RFO       ACCESS:    3691983  HIT:    3611580  MISS:      80403
cpu0_L1D PREFETCH  ACCESS:    3179535  HIT:    3109451  MISS:      70084
cpu0_L1D WRITEBACK ACCESS:          0  HIT:          0  MISS:          0
cpu0_L1D TRANSLATION ACCESS:        784  HIT:        326  MISS:        458
cpu0_L1D PREFETCH  REQUESTED:    3228103  ISSUED:    3209362  USEFUL:      51928  USELESS:      22079
cpu0_L1D AVERAGE MISS LATENCY: 57.0614 cycles
cpu0_L2C TOTAL     ACCESS:     683471  HIT:     534783  MISS:     148688
cpu0_L2C LOAD      ACCESS:     162115  HIT:     129109  MISS:      33006
cpu0_L2C RFO       ACCESS:      79047  HIT:      16055  MISS:      62992
cpu0_L2C PREFETCH  ACCESS:     335486  HIT:     283590  MISS:      51896
cpu0_L2C WRITEBACK ACCESS:     106365  HIT:     105657  MISS:        708
cpu0_L2C TRANSLATION ACCESS:        458  HIT:        372  MISS:         86
cpu0_L2C PREFETCH  REQUESTED:          0  ISSUED:          0  USEFUL:          0  USELESS:          0
cpu0_L2C AVERAGE MISS LATENCY: 89.1088 cycles
LLC TOTAL     ACCESS:     232009  HIT:     181628  MISS:      50381
LLC LOAD      ACCESS:      33005  HIT:      24928  MISS:       8077
LLC RFO       ACCESS:      62992  HIT:      33514  MISS:      29478
LLC PREFETCH  ACCESS:      51896  HIT:      39349  MISS:      12547
LLC WRITEBACK ACCESS:      84030  HIT:      83765  MISS:        265
LLC TRANSLATION ACCESS:         86  HIT:         72  MISS:         14
LLC PREFETCH  REQUESTED:          0  ISSUED:          0  USEFUL:          0  USELESS:          0
LLC AVERAGE MISS LATENCY: 201.298 cycles
CPU 0 L1I EPI prefetcher final stats
IP accesses: a11c 284700 82551 / 6279197
IP misses: 260b 982c0 2508 / 366536
IP hits: 0 0 0 / 0
IP late: 260c 98300 1930 / 126495
IP wrong: a04b 2812c0 1280 / 175186
miss rate: 0.0583731
coverage: 0
coverage_late: 0.345109
accuracy: 0
accuracy_late: 0.419301
discarded: 0
evicts entangled j table: 0
evicts entangled k table: 681
max bb size: 11
max xpq size: 0
formats: 173 320 48768 10189 4519 34190 0 
history table size: 0 bytes; 0 KB
cycles_no_operate: 0 %
bb_found_hist: 0 2067584 888838 344204 131334 25715 14849 5845 10270 644 734 138 0 0 0 0 0 0 0 0 0 0 0 0 0 0 0 0 0 0 0 0 0 0 0 0 0 0 0 0 0 0 0 0 0 0 0 0 0 0 0 0 0 0 0 0 0 0 0 0 0 0 0 0 
bb_found_summary: 5758606 3490155 1.64996
entangled_found_hist: 0 555161 346579 261651 36993 9425 3140 0 
entangled_found_summary: 2247209 1212949 1.85268
bb_ent_found_hist: 0 828696 412125 208414 58922 28859 17189 7181 1336 233 1132 490 0 0 0 0 0 0 0 0 0 0 0 0 0 0 0 0 0 0 0 0 0 0 0 0 0 0 0 0 0 0 0 0 0 0 0 0 0 0 0 0 0 0 0 0 0 0 0 0 0 0 0 0 
bb_ent_found_summary: 2841067 1564577 1.81587
percent_wrong_path_info_recorded: 95.6732%

DRAM Statistics
 CHANNEL 0
 RQ ROW_BUFFER_HIT:      17291  ROW_BUFFER_MISS:      32815
 DBUS AVG_CONGESTED_CYCLE:    3.92704
 WQ ROW_BUFFER_HIT:       4705  ROW_BUFFER_MISS:      30178  FULL:          0


CPU 0 Branch Prediction Accuracy: 96.1104% MPKI: 7.07976 Average ROB Occupancy at Mispredict: 178.94
Branch type MPKI
BRANCH_DIRECT_JUMP: 0.03796
BRANCH_INDIRECT: 0.72836
BRANCH_CONDITIONAL: 5.65404
BRANCH_DIRECT_CALL: 0.07904
BRANCH_INDIRECT_CALL: 0.38616
BRANCH_RETURN: 0.1942

