WARNING: physical memory size is smaller than virtual memory size.
WARNING: option --warmup_instructions is deprecated. Use --warmup-instructions instead.
WARNING: option --simulation_instructions is deprecated. Use --simulation-instructions instead.

*** ChampSim Multicore Out-of-Order Simulator ***
Warmup Instructions: 25000000
Simulation Instructions: 25000000
Number of CPUs: 1
Page size: 4096

CPU 0 Entangling prefetcher
Off-chip DRAM Size: 4 GiB Channels: 1 Width: 64-bit Data Race: 3200 MT/s
Heartbeat CPU 0 instructions: 10000003 cycles: 2508545 heartbeat IPC: 3.986 cumulative IPC: 3.986 (Simulation time: 00 hr 00 min 24 sec)
Heartbeat CPU 0 instructions: 20000001 cycles: 5015474 heartbeat IPC: 3.989 cumulative IPC: 3.988 (Simulation time: 00 hr 00 min 50 sec)
Warmup finished CPU 0 instructions: 25000002 cycles: 6265747 cumulative IPC: 3.99 (Simulation time: 00 hr 01 min 04 sec)
Warmup complete CPU 0 instructions: 25000002 cycles: 6265747 cumulative IPC: 3.99 (Simulation time: 00 hr 01 min 04 sec)
Heartbeat CPU 0 instructions: 30000003 cycles: 9068989 heartbeat IPC: 2.467 cumulative IPC: 1.784 (Simulation time: 00 hr 01 min 26 sec)
Heartbeat CPU 0 instructions: 40000004 cycles: 14877268 heartbeat IPC: 1.722 cumulative IPC: 1.742 (Simulation time: 00 hr 02 min 12 sec)
Heartbeat CPU 0 instructions: 50000000 cycles: 21883556 heartbeat IPC: 1.427 cumulative IPC: 1.601 (Simulation time: 00 hr 02 min 59 sec)
Simulation finished CPU 0 instructions: 25000000 cycles: 15617811 cumulative IPC: 1.601 (Simulation time: 00 hr 02 min 59 sec)
Simulation complete CPU 0 instructions: 25000000 cycles: 15617811 cumulative IPC: 1.601 (Simulation time: 00 hr 02 min 59 sec)

ChampSim completed all CPUs

=== Simulation ===
CPU 0 runs ipc1_public/client_005.champsimtrace.xz
Region of Interest Statistics

CPU 0 cumulative IPC: 1.601 instructions: 25000000 cycles: 15617811
CPU 0 Branch Prediction Accuracy: 97.68% MPKI: 4.255 Average ROB Occupancy at Mispredict: 129
Branch type MPKI
BRANCH_DIRECT_JUMP: 0.0157
BRANCH_INDIRECT: 0.572
BRANCH_CONDITIONAL: 2.71
BRANCH_DIRECT_CALL: 0.0444
BRANCH_INDIRECT_CALL: 0.42
BRANCH_RETURN: 0.49

LLC TOTAL        ACCESS:     318065 HIT:     153640 MISS:     164425
LLC LOAD         ACCESS:      49978 HIT:      15819 MISS:      34159
LLC RFO          ACCESS:      93189 HIT:       2368 MISS:      90821
LLC PREFETCH     ACCESS:      52369 HIT:      14965 MISS:      37404
LLC WRITE        ACCESS:     120771 HIT:     120218 MISS:        553
LLC TRANSLATION  ACCESS:       1758 HIT:        270 MISS:       1488
LLC PREFETCH REQUESTED:          0 ISSUED:          0 USEFUL:          0 USELESS:          0
LLC AVERAGE MISS LATENCY: 528.9 cycles
cpu0_DTLB TOTAL        ACCESS:    5374502 HIT:    5263596 MISS:     110906
cpu0_DTLB LOAD         ACCESS:    5374502 HIT:    5263596 MISS:     110906
cpu0_DTLB RFO          ACCESS:          0 HIT:          0 MISS:          0
cpu0_DTLB PREFETCH     ACCESS:          0 HIT:          0 MISS:          0
cpu0_DTLB WRITE        ACCESS:          0 HIT:          0 MISS:          0
cpu0_DTLB TRANSLATION  ACCESS:          0 HIT:          0 MISS:          0
cpu0_DTLB PREFETCH REQUESTED:          0 ISSUED:          0 USEFUL:          0 USELESS:          0
cpu0_DTLB AVERAGE MISS LATENCY: 13.52 cycles
cpu0_ITLB TOTAL        ACCESS:    5106218 HIT:    4979806 MISS:     126412
cpu0_ITLB LOAD         ACCESS:    5106218 HIT:    4979806 MISS:     126412
cpu0_ITLB RFO          ACCESS:          0 HIT:          0 MISS:          0
cpu0_ITLB PREFETCH     ACCESS:          0 HIT:          0 MISS:          0
cpu0_ITLB WRITE        ACCESS:          0 HIT:          0 MISS:          0
cpu0_ITLB TRANSLATION  ACCESS:          0 HIT:          0 MISS:          0
cpu0_ITLB PREFETCH REQUESTED:          0 ISSUED:          0 USEFUL:          0 USELESS:          0
cpu0_ITLB AVERAGE MISS LATENCY: 4.92 cycles
cpu0_L1D TOTAL        ACCESS:    9791593 HIT:    9023999 MISS:     767594
cpu0_L1D LOAD         ACCESS:    3503497 HIT:    3325450 MISS:     178047
cpu0_L1D RFO          ACCESS:          0 HIT:          0 MISS:          0
cpu0_L1D PREFETCH     ACCESS:    2447712 HIT:    2266197 MISS:     181515
cpu0_L1D WRITE        ACCESS:    3836193 HIT:    3431681 MISS:     404512
cpu0_L1D TRANSLATION  ACCESS:       4191 HIT:        671 MISS:       3520
cpu0_L1D PREFETCH REQUESTED:    3709474 ISSUED:    2447712 USEFUL:      32087 USELESS:      46707
cpu0_L1D AVERAGE MISS LATENCY: 111.9 cycles
cpu0_L1I TOTAL        ACCESS:    7488689 HIT:    6833865 MISS:     654824
cpu0_L1I LOAD         ACCESS:    2353332 HIT:    2145779 MISS:     207553
cpu0_L1I RFO          ACCESS:          0 HIT:          0 MISS:          0
cpu0_L1I PREFETCH     ACCESS:    5135357 HIT:    4688086 MISS:     447271
cpu0_L1I WRITE        ACCESS:          0 HIT:          0 MISS:          0
cpu0_L1I TRANSLATION  ACCESS:          0 HIT:          0 MISS:          0
cpu0_L1I PREFETCH REQUESTED:   12651215 ISSUED:    5135327 USEFUL:     231655 USELESS:     189736
cpu0_L1I AVERAGE MISS LATENCY: 13 cycles
cpu0_L2C TOTAL        ACCESS:     970768 HIT:     773054 MISS:     197714
cpu0_L2C LOAD         ACCESS:     211441 HIT:     161463 MISS:      49978
cpu0_L2C RFO          ACCESS:     108769 HIT:      15580 MISS:      93189
cpu0_L2C PREFETCH     ACCESS:     500156 HIT:     447787 MISS:      52369
cpu0_L2C WRITE        ACCESS:     146919 HIT:     146499 MISS:        420
cpu0_L2C TRANSLATION  ACCESS:       3483 HIT:       1725 MISS:       1758
cpu0_L2C PREFETCH REQUESTED:          0 ISSUED:          0 USEFUL:          0 USELESS:          0
cpu0_L2C AVERAGE MISS LATENCY: 460.7 cycles
cpu0_STLB TOTAL        ACCESS:     138777 HIT:     134836 MISS:       3941
cpu0_STLB LOAD         ACCESS:     138777 HIT:     134836 MISS:       3941
cpu0_STLB RFO          ACCESS:          0 HIT:          0 MISS:          0
cpu0_STLB PREFETCH     ACCESS:          0 HIT:          0 MISS:          0
cpu0_STLB WRITE        ACCESS:          0 HIT:          0 MISS:          0
cpu0_STLB TRANSLATION  ACCESS:          0 HIT:          0 MISS:          0
cpu0_STLB PREFETCH REQUESTED:          0 ISSUED:          0 USEFUL:          0 USELESS:          0
cpu0_STLB AVERAGE MISS LATENCY: 354.1 cycles

DRAM Statistics

Channel 0 RQ ROW_BUFFER_HIT:      44214
  ROW_BUFFER_MISS:     119641
 AVG DBUS CONGESTED CYCLE: 3.969
WQ ROW_BUFFER_HIT: Channel 0 
  ROW_BUFFER_MISS:      10276
  FULL:     118032
CPU 0 L1I Entangling prefetcher final stats
IP accesses: a11c 284700 47030 / 4907120
IP misses: 260b 982c0 2802 / 472765
IP hits: 860c 218300 1586 / 450855
IP late: 7acc 1eb300 1577 / 236236
IP wrong: 87d9 21f640 1663 / 388546
miss rate: 0.0963427
coverage: 0.48814
coverage_late: 0.743911
accuracy: 0.419152
accuracy_late: 0.638776
discarded: 0
evicts entangled j table: 0
evicts entangled k table: 81172
max bb size: 15
formats: 10857 6498 57629 18652 7602 25827 0 
hist_lookups: 74617 75411 55884 42948 31486 23164 17066 12718 8865 6334 4445 3107 2047 1289 609 0 0 7508 
hist_lookups_evict: 0 %
hist_lookups_shortlat: 2.04301 %
bb_found_hist: 0 1335959 675712 262022 96532 69189 31425 23749 36738 5221 6171 5263 1210 8516 0 2 0 0 0 0 0 0 0 0 0 0 0 0 0 0 0 0 0 0 0 0 0 0 0 0 0 0 0 0 0 0 0 0 0 0 0 0 0 0 0 0 0 0 0 0 0 0 0 0 
bb_found_summary: 5146069 2557709 2.01199
entangled_found_hist: 0 512418 516528 1326122 251543 36213 24046 0 
entangled_found_summary: 6855353 2666870 2.57057
bb_ent_found_hist: 0 2433632 1323937 772529 278801 292924 79862 48799 55857 17776 50839 12684 7572 2306 0 27 0 0 0 0 0 0 0 0 0 0 0 0 0 0 0 0 0 0 0 0 0 0 0 0 0 0 0 0 0 0 0 0 0 0 0 0 0 0 0 0 0 0 0 0 0 0 0 0 
bb_ent_found_summary: 12175683 5377545 2.26418
