
*** ChampSim Multicore Out-of-Order Simulator ***

Warmup Instructions: 25000000
Simulation Instructions: 25000000
Number of CPUs: 1
Off-chip DRAM Size: 4 GiB Channels: 1 Width: 64-bit Data Rate: 3200 MT/s

VirtualMemory physical capacity: 8588881920 num_ppages: 2096895
VirtualMemory page size: 4096 log2_page_size: 12

CPU 0 runs ipc1_public/client_005.champsimtrace.xz
Basic BTB sets: 1024 ways: 8 indirect buffer size: 4096 RAS size: 64
cpu0_STLB next line prefetcher
cpu0_L1D next line prefetcher
WARNING: The extended signature CACHE::prefetch_line(ip, base_addr, pf_addr, fill_this_level, prefetch_metadata) is deprecated.
WARNING: Use CACHE::prefetch_line(pf_addr, fill_this_level, prefetch_metadata) instead.
Heartbeat CPU 0 instructions: 10000002 cycles: 2533443 heartbeat IPC: 3.9472 cumulative IPC: 3.9472 (Simulation time: 0 hr 0 min 21 sec) 
Heartbeat CPU 0 instructions: 20000001 cycles: 5047984 heartbeat IPC: 3.97687 cumulative IPC: 3.96198 (Simulation time: 0 hr 0 min 42 sec) 

Warmup complete CPU 0 instructions: 25000001 cycles: 6298233 (Simulation time: 0 hr 0 min 52 sec) 

Heartbeat CPU 0 instructions: 30000002 cycles: 9901183 heartbeat IPC: 2.0605 cumulative IPC: 1.38775 (Simulation time: 0 hr 1 min 11 sec) 
Heartbeat CPU 0 instructions: 40000000 cycles: 17321490 heartbeat IPC: 1.34765 cumulative IPC: 1.36076 (Simulation time: 0 hr 1 min 50 sec) 
Heartbeat CPU 0 instructions: 50000001 cycles: 27165282 heartbeat IPC: 1.01587 cumulative IPC: 1.19806 (Simulation time: 0 hr 2 min 33 sec) 
Finished CPU 0 instructions: 25000000 cycles: 20867049 cumulative IPC: 1.19806 (Simulation time: 0 hr 2 min 33 sec) 

ChampSim completed all CPUs

Region of Interest Statistics

CPU 0 cumulative IPC: 1.19806 instructions: 25000000 cycles: 20867049
cpu0_DTLB TOTAL     ACCESS:    4926961  HIT:    4857541  MISS:      69420
cpu0_DTLB LOAD      ACCESS:    2757626  HIT:    2698090  MISS:      59536
cpu0_DTLB RFO       ACCESS:    2169335  HIT:    2159451  MISS:       9884
cpu0_DTLB PREFETCH  ACCESS:          0  HIT:          0  MISS:          0
cpu0_DTLB WRITEBACK ACCESS:          0  HIT:          0  MISS:          0
cpu0_DTLB TRANSLATION ACCESS:          0  HIT:          0  MISS:          0
cpu0_DTLB PREFETCH  REQUESTED:          0  ISSUED:          0  USEFUL:          0  USELESS:          0
cpu0_DTLB AVERAGE MISS LATENCY: 14.5279 cycles
cpu0_ITLB TOTAL     ACCESS:    1746727  HIT:    1711559  MISS:      35168
cpu0_ITLB LOAD      ACCESS:    1746727  HIT:    1711559  MISS:      35168
cpu0_ITLB RFO       ACCESS:          0  HIT:          0  MISS:          0
cpu0_ITLB PREFETCH  ACCESS:          0  HIT:          0  MISS:          0
cpu0_ITLB WRITEBACK ACCESS:          0  HIT:          0  MISS:          0
cpu0_ITLB TRANSLATION ACCESS:          0  HIT:          0  MISS:          0
cpu0_ITLB PREFETCH  REQUESTED:          0  ISSUED:          0  USEFUL:          0  USELESS:          0
cpu0_ITLB AVERAGE MISS LATENCY: 9.21639 cycles
cpu0_L1I TOTAL     ACCESS:    3224080  HIT:    3000160  MISS:     223920
cpu0_L1I LOAD      ACCESS:    3224080  HIT:    3000160  MISS:     223920
cpu0_L1I RFO       ACCESS:          0  HIT:          0  MISS:          0
cpu0_L1I PREFETCH  ACCESS:          0  HIT:          0  MISS:          0
cpu0_L1I WRITEBACK ACCESS:          0  HIT:          0  MISS:          0
cpu0_L1I TRANSLATION ACCESS:          0  HIT:          0  MISS:          0
cpu0_L1I PREFETCH  REQUESTED:          0  ISSUED:          0  USEFUL:          0  USELESS:          0
cpu0_L1I AVERAGE MISS LATENCY: 17.7737 cycles
cpu0_STLB TOTAL     ACCESS:     104588  HIT:     100826  MISS:       3762
cpu0_STLB LOAD      ACCESS:      94704  HIT:      92521  MISS:       2183
cpu0_STLB RFO       ACCESS:       9884  HIT:       8305  MISS:       1579
cpu0_STLB PREFETCH  ACCESS:          0  HIT:          0  MISS:          0
cpu0_STLB WRITEBACK ACCESS:          0  HIT:          0  MISS:          0
cpu0_STLB TRANSLATION ACCESS:          0  HIT:          0  MISS:          0
cpu0_STLB PREFETCH  REQUESTED:      94704  ISSUED:          0  USEFUL:          0  USELESS:          0
cpu0_STLB AVERAGE MISS LATENCY: 103.692 cycles
cpu0_L1D TOTAL     ACCESS:    9671940  HIT:    9396370  MISS:     275570
cpu0_L1D LOAD      ACCESS:    3084806  HIT:    3002000  MISS:      82806
cpu0_L1D RFO       ACCESS:    3555072  HIT:    3446748  MISS:     108324
cpu0_L1D PREFETCH  ACCESS:    3028399  HIT:    2944894  MISS:      83505
cpu0_L1D WRITEBACK ACCESS:          0  HIT:          0  MISS:          0
cpu0_L1D TRANSLATION ACCESS:       3663  HIT:       2728  MISS:        935
cpu0_L1D PREFETCH  REQUESTED:    3101570  ISSUED:    3082017  USEFUL:      65859  USELESS:      27050
cpu0_L1D AVERAGE MISS LATENCY: 153.213 cycles
cpu0_L2C TOTAL     ACCESS:     645023  HIT:     445827  MISS:     199196
cpu0_L2C LOAD      ACCESS:     300061  HIT:     246541  MISS:      53520
cpu0_L2C RFO       ACCESS:     105584  HIT:      13306  MISS:      92278
cpu0_L2C PREFETCH  ACCESS:      92893  HIT:      40267  MISS:      52626
cpu0_L2C WRITEBACK ACCESS:     145550  HIT:     144924  MISS:        626
cpu0_L2C TRANSLATION ACCESS:        935  HIT:        789  MISS:        146
cpu0_L2C PREFETCH  REQUESTED:          0  ISSUED:          0  USEFUL:          0  USELESS:          0
cpu0_L2C AVERAGE MISS LATENCY: 211.274 cycles
LLC TOTAL     ACCESS:     320430  HIT:     155824  MISS:     164606
LLC LOAD      ACCESS:      53520  HIT:      17977  MISS:      35543
LLC RFO       ACCESS:      92278  HIT:       2510  MISS:      89768
LLC PREFETCH  ACCESS:      52626  HIT:      13928  MISS:      38698
LLC WRITEBACK ACCESS:     121860  HIT:     121316  MISS:        544
LLC TRANSLATION ACCESS:        146  HIT:         93  MISS:         53
LLC PREFETCH  REQUESTED:          0  ISSUED:          0  USEFUL:          0  USELESS:          0
LLC AVERAGE MISS LATENCY: 230.337 cycles

DRAM Statistics
 CHANNEL 0
 RQ ROW_BUFFER_HIT:      51894  ROW_BUFFER_MISS:     112138
 DBUS AVG_CONGESTED_CYCLE:    3.94096
 WQ ROW_BUFFER_HIT:      16119  ROW_BUFFER_MISS:     112952  FULL:          0


CPU 0 Branch Prediction Accuracy: 95.7904% MPKI: 7.73784 Average ROB Occupancy at Mispredict: 174.268
Branch type MPKI
BRANCH_DIRECT_JUMP: 0.01288
BRANCH_INDIRECT: 0.57212
BRANCH_CONDITIONAL: 6.22528
BRANCH_DIRECT_CALL: 0.03524
BRANCH_INDIRECT_CALL: 0.41896
BRANCH_RETURN: 0.47336

