
*** ChampSim Multicore Out-of-Order Simulator ***

Warmup Instructions: 25000000
Simulation Instructions: 25000000
Number of CPUs: 1
Off-chip DRAM Size: 4 GiB Channels: 1 Width: 64-bit Data Rate: 3200 MT/s

VirtualMemory physical capacity: 8588881920 num_ppages: 2096895
VirtualMemory page size: 4096 log2_page_size: 12

CPU 0 runs ipc1_public/client_002.champsimtrace.xz
Basic BTB sets: 1024 ways: 8 indirect buffer size: 4096 RAS size: 64
CPU 0 Improved Entangling prefetcher
cpu0_L1D next line prefetcher
WARNING: The extended signature CACHE::prefetch_line(ip, base_addr, pf_addr, fill_this_level, prefetch_metadata) is deprecated.
WARNING: Use CACHE::prefetch_line(pf_addr, fill_this_level, prefetch_metadata) instead.
Heartbeat CPU 0 instructions: 10000000 cycles: 2513479 heartbeat IPC: 3.97855 cumulative IPC: 3.97855 (Simulation time: 0 hr 0 min 24 sec) 
Heartbeat CPU 0 instructions: 20000003 cycles: 5025152 heartbeat IPC: 3.98141 cumulative IPC: 3.97998 (Simulation time: 0 hr 0 min 50 sec) 

Warmup complete CPU 0 instructions: 25000003 cycles: 6280793 (Simulation time: 0 hr 1 min 4 sec) 

Heartbeat CPU 0 instructions: 30000002 cycles: 9231512 heartbeat IPC: 2.37735 cumulative IPC: 1.6945 (Simulation time: 0 hr 1 min 22 sec) 
Heartbeat CPU 0 instructions: 40000000 cycles: 15113360 heartbeat IPC: 1.70015 cumulative IPC: 1.69826 (Simulation time: 0 hr 1 min 59 sec) 
Heartbeat CPU 0 instructions: 50000004 cycles: 20895008 heartbeat IPC: 1.72961 cumulative IPC: 1.71066 (Simulation time: 0 hr 2 min 37 sec) 
Finished CPU 0 instructions: 25000001 cycles: 14614215 cumulative IPC: 1.71066 (Simulation time: 0 hr 2 min 37 sec) 

ChampSim completed all CPUs

Region of Interest Statistics

CPU 0 cumulative IPC: 1.71066 instructions: 25000001 cycles: 14614215
cpu0_DTLB TOTAL     ACCESS:    4713580  HIT:    4632225  MISS:      81355
cpu0_DTLB LOAD      ACCESS:    2832246  HIT:    2756137  MISS:      76109
cpu0_DTLB RFO       ACCESS:    1881334  HIT:    1876088  MISS:       5246
cpu0_DTLB PREFETCH  ACCESS:          0  HIT:          0  MISS:          0
cpu0_DTLB WRITEBACK ACCESS:          0  HIT:          0  MISS:          0
cpu0_DTLB TRANSLATION ACCESS:          0  HIT:          0  MISS:          0
cpu0_DTLB PREFETCH  REQUESTED:          0  ISSUED:          0  USEFUL:          0  USELESS:          0
cpu0_DTLB AVERAGE MISS LATENCY: 10.4517 cycles
cpu0_ITLB TOTAL     ACCESS:    1797895  HIT:    1748667  MISS:      49228
cpu0_ITLB LOAD      ACCESS:    1797895  HIT:    1748667  MISS:      49228
cpu0_ITLB RFO       ACCESS:          0  HIT:          0  MISS:          0
cpu0_ITLB PREFETCH  ACCESS:          0  HIT:          0  MISS:          0
cpu0_ITLB WRITEBACK ACCESS:          0  HIT:          0  MISS:          0
cpu0_ITLB TRANSLATION ACCESS:          0  HIT:          0  MISS:          0
cpu0_ITLB PREFETCH  REQUESTED:          0  ISSUED:          0  USEFUL:          0  USELESS:          0
cpu0_ITLB AVERAGE MISS LATENCY: 9.31771 cycles
cpu0_L1I TOTAL     ACCESS:    7044776  HIT:    6652530  MISS:     392246
cpu0_L1I LOAD      ACCESS:    2517565  HIT:    2418602  MISS:      98963
cpu0_L1I RFO       ACCESS:          0  HIT:          0  MISS:          0
cpu0_L1I PREFETCH  ACCESS:    4527211  HIT:    4233928  MISS:     293283
cpu0_L1I WRITEBACK ACCESS:          0  HIT:          0  MISS:          0
cpu0_L1I TRANSLATION ACCESS:          0  HIT:          0  MISS:          0
cpu0_L1I PREFETCH  REQUESTED:    5024588  ISSUED:    4558457  USEFUL:     270166  USELESS:      31552
cpu0_L1I AVERAGE MISS LATENCY: 13.7813 cycles
cpu0_STLB TOTAL     ACCESS:     130583  HIT:     126587  MISS:       3996
cpu0_STLB LOAD      ACCESS:     125337  HIT:     121606  MISS:       3731
cpu0_STLB RFO       ACCESS:       5246  HIT:       4981  MISS:        265
cpu0_STLB PREFETCH  ACCESS:          0  HIT:          0  MISS:          0
cpu0_STLB WRITEBACK ACCESS:          0  HIT:          0  MISS:          0
cpu0_STLB TRANSLATION ACCESS:          0  HIT:          0  MISS:          0
cpu0_STLB PREFETCH  REQUESTED:          0  ISSUED:          0  USEFUL:          0  USELESS:          0
cpu0_STLB AVERAGE MISS LATENCY: 32.9087 cycles
cpu0_L1D TOTAL     ACCESS:    9408048  HIT:    9236521  MISS:     171527
cpu0_L1D LOAD      ACCESS:    3109373  HIT:    3049953  MISS:      59420
cpu0_L1D RFO       ACCESS:    3222320  HIT:    3177060  MISS:      45260
cpu0_L1D PREFETCH  ACCESS:    3072396  HIT:    3006335  MISS:      66061
cpu0_L1D WRITEBACK ACCESS:          0  HIT:          0  MISS:          0
cpu0_L1D TRANSLATION ACCESS:       3959  HIT:       3173  MISS:        786
cpu0_L1D PREFETCH  REQUESTED:    3114880  ISSUED:    3099062  USEFUL:      56388  USELESS:      14399
cpu0_L1D AVERAGE MISS LATENCY: 49.339 cycles
cpu0_L2C TOTAL     ACCESS:     626762  HIT:     510173  MISS:     116589
cpu0_L2C LOAD      ACCESS:     146019  HIT:     116731  MISS:      29288
cpu0_L2C RFO       ACCESS:      44416  HIT:      12523  MISS:      31893
cpu0_L2C PREFETCH  ACCESS:     372545  HIT:     317459  MISS:      55086
cpu0_L2C WRITEBACK ACCESS:      62996  HIT:      62767  MISS:        229
cpu0_L2C TRANSLATION ACCESS:        786  HIT:        693  MISS:         93
cpu0_L2C PREFETCH  REQUESTED:          0  ISSUED:          0  USEFUL:          0  USELESS:          0
cpu0_L2C AVERAGE MISS LATENCY: 68.4506 cycles
LLC TOTAL     ACCESS:     155945  HIT:     132717  MISS:      23228
LLC LOAD      ACCESS:      29288  HIT:      25736  MISS:       3552
LLC RFO       ACCESS:      31893  HIT:      17083  MISS:      14810
LLC PREFETCH  ACCESS:      55085  HIT:      50283  MISS:       4802
LLC WRITEBACK ACCESS:      39586  HIT:      39527  MISS:         59
LLC TRANSLATION ACCESS:         93  HIT:         88  MISS:          5
LLC PREFETCH  REQUESTED:          0  ISSUED:          0  USEFUL:          0  USELESS:          0
LLC AVERAGE MISS LATENCY: 238.373 cycles
CPU 0 L1I EPI prefetcher final stats
IP accesses: a11c 284700 67062 / 5794806
IP misses: 71f9 1c7e40 1399 / 276396
IP hits: 0 0 0 / 0
IP late: b5ac 2d6b00 808 / 91700
IP wrong: 2e0f b83c0 911 / 124954
miss rate: 0.0476972
coverage: 0
coverage_late: 0.33177
accuracy: 0
accuracy_late: 0.423256
discarded: 0
evicts entangled j table: 0
evicts entangled k table: 383
max bb size: 10
max xpq size: 0
formats: 45 260 35888 5608 2462 29529 0 
history table size: 0 bytes; 0 KB
cycles_no_operate: 0 %
bb_found_hist: 0 1807960 721688 362179 56039 31130 9860 2873 13543 0 1422 0 0 0 0 0 0 0 0 0 0 0 0 0 0 0 0 0 0 0 0 0 0 0 0 0 0 0 0 0 0 0 0 0 0 0 0 0 0 0 0 0 0 0 0 0 0 0 0 0 0 0 0 0 
bb_found_summary: 4919514 3006694 1.63619
entangled_found_hist: 0 476191 319938 242836 27467 5533 2497 0 
entangled_found_summary: 1997090 1074462 1.85869
bb_ent_found_hist: 0 723675 332104 168234 37550 45307 5360 21564 150 0 3121 0 0 0 0 0 0 0 0 0 0 0 0 0 0 0 0 0 0 0 0 0 0 0 0 0 0 0 0 0 0 0 0 0 0 0 0 0 0 0 0 0 0 0 0 0 0 0 0 0 0 0 0 0 
bb_ent_found_summary: 2484838 1337065 1.85843
percent_wrong_path_info_recorded: 95.1614%

DRAM Statistics
 CHANNEL 0
 RQ ROW_BUFFER_HIT:       9381  ROW_BUFFER_MISS:      13788
 DBUS AVG_CONGESTED_CYCLE:    3.94257
 WQ ROW_BUFFER_HIT:       1938  ROW_BUFFER_MISS:      11692  FULL:          0


CPU 0 Branch Prediction Accuracy: 96.0444% MPKI: 7.48676 Average ROB Occupancy at Mispredict: 162.345
Branch type MPKI
BRANCH_DIRECT_JUMP: 0.05004
BRANCH_INDIRECT: 0.66856
BRANCH_CONDITIONAL: 6.25044
BRANCH_DIRECT_CALL: 0.09008
BRANCH_INDIRECT_CALL: 0.37956
BRANCH_RETURN: 0.04808

