
*** ChampSim Multicore Out-of-Order Simulator ***

Warmup Instructions: 25000000
Simulation Instructions: 25000000
Number of CPUs: 1
Off-chip DRAM Size: 4 GiB Channels: 1 Width: 64-bit Data Rate: 3200 MT/s

VirtualMemory physical capacity: 8588881920 num_ppages: 2096895
VirtualMemory page size: 4096 log2_page_size: 12

CPU 0 runs ipc1_public/client_004.champsimtrace.xz
Basic BTB sets: 1024 ways: 8 indirect buffer size: 4096 RAS size: 64
CPU 0 Entangling prefetcher
cpu0_L1D next line prefetcher
WARNING: The extended signature CACHE::prefetch_line(ip, base_addr, pf_addr, fill_this_level, prefetch_metadata) is deprecated.
WARNING: Use CACHE::prefetch_line(pf_addr, fill_this_level, prefetch_metadata) instead.
Heartbeat CPU 0 instructions: 10000003 cycles: 2750619 heartbeat IPC: 3.63555 cumulative IPC: 3.63555 (Simulation time: 0 hr 0 min 30 sec) 
Heartbeat CPU 0 instructions: 20000003 cycles: 5375092 heartbeat IPC: 3.81029 cumulative IPC: 3.72087 (Simulation time: 0 hr 0 min 58 sec) 

Warmup complete CPU 0 instructions: 25000004 cycles: 6786908 (Simulation time: 0 hr 1 min 13 sec) 

Heartbeat CPU 0 instructions: 30000004 cycles: 10289874 heartbeat IPC: 2.03468 cumulative IPC: 1.42736 (Simulation time: 0 hr 1 min 33 sec) 
Heartbeat CPU 0 instructions: 40000004 cycles: 18984381 heartbeat IPC: 1.15015 cumulative IPC: 1.22976 (Simulation time: 0 hr 2 min 13 sec) 
Heartbeat CPU 0 instructions: 50000004 cycles: 25906288 heartbeat IPC: 1.44469 cumulative IPC: 1.30757 (Simulation time: 0 hr 2 min 55 sec) 
Finished CPU 0 instructions: 25000000 cycles: 19119380 cumulative IPC: 1.30757 (Simulation time: 0 hr 2 min 55 sec) 

ChampSim completed all CPUs

Region of Interest Statistics

CPU 0 cumulative IPC: 1.30757 instructions: 25000000 cycles: 19119380
cpu0_DTLB TOTAL     ACCESS:    5537946  HIT:    5413855  MISS:     124091
cpu0_DTLB LOAD      ACCESS:    3929052  HIT:    3813128  MISS:     115924
cpu0_DTLB RFO       ACCESS:    1608894  HIT:    1600727  MISS:       8167
cpu0_DTLB PREFETCH  ACCESS:          0  HIT:          0  MISS:          0
cpu0_DTLB WRITEBACK ACCESS:          0  HIT:          0  MISS:          0
cpu0_DTLB TRANSLATION ACCESS:          0  HIT:          0  MISS:          0
cpu0_DTLB PREFETCH  REQUESTED:          0  ISSUED:          0  USEFUL:          0  USELESS:          0
cpu0_DTLB AVERAGE MISS LATENCY: 10.3761 cycles
cpu0_ITLB TOTAL     ACCESS:    1979906  HIT:    1926480  MISS:      53426
cpu0_ITLB LOAD      ACCESS:    1979906  HIT:    1926480  MISS:      53426
cpu0_ITLB RFO       ACCESS:          0  HIT:          0  MISS:          0
cpu0_ITLB PREFETCH  ACCESS:          0  HIT:          0  MISS:          0
cpu0_ITLB WRITEBACK ACCESS:          0  HIT:          0  MISS:          0
cpu0_ITLB TRANSLATION ACCESS:          0  HIT:          0  MISS:          0
cpu0_ITLB PREFETCH  REQUESTED:          0  ISSUED:          0  USEFUL:          0  USELESS:          0
cpu0_ITLB AVERAGE MISS LATENCY: 10.503 cycles
cpu0_L1I TOTAL     ACCESS:   10368839  HIT:    9856013  MISS:     512826
cpu0_L1I LOAD      ACCESS:    2584710  HIT:    2512298  MISS:      72412
cpu0_L1I RFO       ACCESS:          0  HIT:          0  MISS:          0
cpu0_L1I PREFETCH  ACCESS:    7784129  HIT:    7343715  MISS:     440414
cpu0_L1I WRITEBACK ACCESS:          0  HIT:          0  MISS:          0
cpu0_L1I TRANSLATION ACCESS:          0  HIT:          0  MISS:          0
cpu0_L1I PREFETCH  REQUESTED:   10091045  ISSUED:    7815110  USEFUL:     387854  USELESS:      69268
cpu0_L1I AVERAGE MISS LATENCY: 20.6867 cycles
cpu0_STLB TOTAL     ACCESS:     177517  HIT:     171905  MISS:       5612
cpu0_STLB LOAD      ACCESS:     169350  HIT:     164116  MISS:       5234
cpu0_STLB RFO       ACCESS:       8167  HIT:       7789  MISS:        378
cpu0_STLB PREFETCH  ACCESS:          0  HIT:          0  MISS:          0
cpu0_STLB WRITEBACK ACCESS:          0  HIT:          0  MISS:          0
cpu0_STLB TRANSLATION ACCESS:          0  HIT:          0  MISS:          0
cpu0_STLB PREFETCH  REQUESTED:          0  ISSUED:          0  USEFUL:          0  USELESS:          0
cpu0_STLB AVERAGE MISS LATENCY: 44.2035 cycles
cpu0_L1D TOTAL     ACCESS:   10690210  HIT:   10272273  MISS:     417937
cpu0_L1D LOAD      ACCESS:    4172832  HIT:    3981570  MISS:     191262
cpu0_L1D RFO       ACCESS:    2444789  HIT:    2395776  MISS:      49013
cpu0_L1D PREFETCH  ACCESS:    4067042  HIT:    3890521  MISS:     176521
cpu0_L1D WRITEBACK ACCESS:          0  HIT:          0  MISS:          0
cpu0_L1D TRANSLATION ACCESS:       5547  HIT:       4406  MISS:       1141
cpu0_L1D PREFETCH  REQUESTED:    4187065  ISSUED:    4138216  USEFUL:     136996  USELESS:      48285
cpu0_L1D AVERAGE MISS LATENCY: 35.8001 cycles
cpu0_L2C TOTAL     ACCESS:    1035812  HIT:     832055  MISS:     203757
cpu0_L2C LOAD      ACCESS:     239567  HIT:     180641  MISS:      58926
cpu0_L2C RFO       ACCESS:      47683  HIT:      22732  MISS:      24951
cpu0_L2C PREFETCH  ACCESS:     642262  HIT:     523161  MISS:     119101
cpu0_L2C WRITEBACK ACCESS:     105159  HIT:     104614  MISS:        545
cpu0_L2C TRANSLATION ACCESS:       1141  HIT:        907  MISS:        234
cpu0_L2C PREFETCH  REQUESTED:          0  ISSUED:          0  USEFUL:          0  USELESS:          0
cpu0_L2C AVERAGE MISS LATENCY: 80.3685 cycles
LLC TOTAL     ACCESS:     242843  HIT:     185294  MISS:      57549
LLC LOAD      ACCESS:      58924  HIT:      37086  MISS:      21838
LLC RFO       ACCESS:      24950  HIT:      10815  MISS:      14135
LLC PREFETCH  ACCESS:     119100  HIT:      97567  MISS:      21533
LLC WRITEBACK ACCESS:      39635  HIT:      39615  MISS:         20
LLC TRANSLATION ACCESS:        234  HIT:        211  MISS:         23
LLC PREFETCH  REQUESTED:          0  ISSUED:          0  USEFUL:          0  USELESS:          0
LLC AVERAGE MISS LATENCY: 210.39 cycles
CPU 0 L1I Entangling prefetcher final stats
IP accesses: fd09 3f4240 16801 / 2587621
IP misses: de49 379240 343 / 75324
IP hits: 0 0 0 / 0
IP late: 8d8b 2362c0 272 / 39227
IP wrong: 207f 81fc0 587 / 163472
miss rate: 0.0291094
coverage: 0
coverage_late: 0.520777
accuracy: 0
accuracy_late: 0.193523
discarded: 0
evicts entangled j table: 0
evicts entangled k table: 14756
max bb size: 24
formats: 114 2689 17242 4572 4112 7257 0 
hist_lookups: 17214 18329 12424 8548 6192 4321 3012 2130 1573 1106 717 453 273 163 101 0 15 1594 
hist_lookups_evict: 0.0191902 %
hist_lookups_shortlat: 2.03928 %
bb_found_hist: 0 557781 259379 180133 82234 42810 25200 20258 8348 7908 5522 2081 1978 245 704 399 668 883 347 92 0 0 1 0 0 0 0 0 0 0 0 0 0 0 0 0 0 0 0 0 0 0 0 0 0 0 0 0 0 0 0 0 0 0 0 0 0 0 0 0 0 0 0 0 
bb_found_summary: 2745474 1196971 2.29368
entangled_found_hist: 0 273404 329370 528993 100389 46468 2636 0 
entangled_found_summary: 3168835 1281260 2.47322
bb_ent_found_hist: 0 989555 405774 255410 138637 68439 43888 29610 13236 6646 8686 4374 2784 585 593 1594 675 1157 687 276 0 0 0 0 37 0 0 0 0 0 0 0 0 0 0 0 0 0 0 0 0 0 0 0 0 0 0 0 0 0 0 0 0 0 0 0 0 0 0 0 0 0 0 0 
bb_ent_found_summary: 4357542 1972643 2.20899

DRAM Statistics
 CHANNEL 0
 RQ ROW_BUFFER_HIT:      10533  ROW_BUFFER_MISS:      46993
 DBUS AVG_CONGESTED_CYCLE:    3.83609
 WQ ROW_BUFFER_HIT:       4168  ROW_BUFFER_MISS:      14459  FULL:          0


CPU 0 Branch Prediction Accuracy: 91.0499% MPKI: 16.0574 Average ROB Occupancy at Mispredict: 132.317
Branch type MPKI
BRANCH_DIRECT_JUMP: 0.33756
BRANCH_INDIRECT: 3.23968
BRANCH_CONDITIONAL: 9.1052
BRANCH_DIRECT_CALL: 0.54464
BRANCH_INDIRECT_CALL: 1.66768
BRANCH_RETURN: 1.16264

