
*** ChampSim Multicore Out-of-Order Simulator ***

Warmup Instructions: 25000000
Simulation Instructions: 25000000
Number of CPUs: 1
Off-chip DRAM Size: 4 GiB Channels: 1 Width: 64-bit Data Rate: 3200 MT/s

VirtualMemory physical capacity: 8588881920 num_ppages: 2096895
VirtualMemory page size: 4096 log2_page_size: 12

CPU 0 runs ipc1_public/client_001.champsimtrace.xz
Basic BTB sets: 1024 ways: 8 indirect buffer size: 4096 RAS size: 64
cpu0_STLB arbitrary stride prefetcher
cpu0_L1D next line prefetcher
WARNING: The extended signature CACHE::prefetch_line(ip, base_addr, pf_addr, fill_this_level, prefetch_metadata) is deprecated.
WARNING: Use CACHE::prefetch_line(pf_addr, fill_this_level, prefetch_metadata) instead.
Heartbeat CPU 0 instructions: 10000002 cycles: 2697763 heartbeat IPC: 3.70678 cumulative IPC: 3.70678 (Simulation time: 0 hr 0 min 24 sec) 
Heartbeat CPU 0 instructions: 20000002 cycles: 5630923 heartbeat IPC: 3.40929 cumulative IPC: 3.55182 (Simulation time: 0 hr 0 min 52 sec) 

Warmup complete CPU 0 instructions: 25000001 cycles: 6886576 (Simulation time: 0 hr 1 min 2 sec) 

Heartbeat CPU 0 instructions: 30000003 cycles: 10724023 heartbeat IPC: 1.96344 cumulative IPC: 1.30295 (Simulation time: 0 hr 1 min 23 sec) 
Heartbeat CPU 0 instructions: 40000000 cycles: 17954852 heartbeat IPC: 1.38297 cumulative IPC: 1.35522 (Simulation time: 0 hr 2 min 6 sec) 
Heartbeat CPU 0 instructions: 50000001 cycles: 23832251 heartbeat IPC: 1.70143 cumulative IPC: 1.4753 (Simulation time: 0 hr 2 min 43 sec) 
Finished CPU 0 instructions: 25000000 cycles: 16945675 cumulative IPC: 1.4753 (Simulation time: 0 hr 2 min 43 sec) 

ChampSim completed all CPUs

Region of Interest Statistics

CPU 0 cumulative IPC: 1.4753 instructions: 25000000 cycles: 16945675
cpu0_DTLB TOTAL     ACCESS:    5139386  HIT:    5001841  MISS:     137545
cpu0_DTLB LOAD      ACCESS:    3839299  HIT:    3707573  MISS:     131726
cpu0_DTLB RFO       ACCESS:    1300087  HIT:    1294268  MISS:       5819
cpu0_DTLB PREFETCH  ACCESS:          0  HIT:          0  MISS:          0
cpu0_DTLB WRITEBACK ACCESS:          0  HIT:          0  MISS:          0
cpu0_DTLB TRANSLATION ACCESS:          0  HIT:          0  MISS:          0
cpu0_DTLB PREFETCH  REQUESTED:          0  ISSUED:          0  USEFUL:          0  USELESS:          0
cpu0_DTLB AVERAGE MISS LATENCY: 10.1497 cycles
cpu0_ITLB TOTAL     ACCESS:    1578007  HIT:    1549588  MISS:      28419
cpu0_ITLB LOAD      ACCESS:    1578007  HIT:    1549588  MISS:      28419
cpu0_ITLB RFO       ACCESS:          0  HIT:          0  MISS:          0
cpu0_ITLB PREFETCH  ACCESS:          0  HIT:          0  MISS:          0
cpu0_ITLB WRITEBACK ACCESS:          0  HIT:          0  MISS:          0
cpu0_ITLB TRANSLATION ACCESS:          0  HIT:          0  MISS:          0
cpu0_ITLB PREFETCH  REQUESTED:          0  ISSUED:          0  USEFUL:          0  USELESS:          0
cpu0_ITLB AVERAGE MISS LATENCY: 10.033 cycles
cpu0_L1I TOTAL     ACCESS:    2166364  HIT:    2018784  MISS:     147580
cpu0_L1I LOAD      ACCESS:    2166364  HIT:    2018784  MISS:     147580
cpu0_L1I RFO       ACCESS:          0  HIT:          0  MISS:          0
cpu0_L1I PREFETCH  ACCESS:          0  HIT:          0  MISS:          0
cpu0_L1I WRITEBACK ACCESS:          0  HIT:          0  MISS:          0
cpu0_L1I TRANSLATION ACCESS:          0  HIT:          0  MISS:          0
cpu0_L1I PREFETCH  REQUESTED:          0  ISSUED:          0  USEFUL:          0  USELESS:          0
cpu0_L1I AVERAGE MISS LATENCY: 22.1198 cycles
cpu0_STLB TOTAL     ACCESS:     165964  HIT:     163685  MISS:       2279
cpu0_STLB LOAD      ACCESS:     160145  HIT:     158238  MISS:       1907
cpu0_STLB RFO       ACCESS:       5819  HIT:       5447  MISS:        372
cpu0_STLB PREFETCH  ACCESS:          0  HIT:          0  MISS:          0
cpu0_STLB WRITEBACK ACCESS:          0  HIT:          0  MISS:          0
cpu0_STLB TRANSLATION ACCESS:          0  HIT:          0  MISS:          0
cpu0_STLB PREFETCH  REQUESTED:         40  ISSUED:          6  USEFUL:          0  USELESS:          0
cpu0_STLB AVERAGE MISS LATENCY: 79.9588 cycles
cpu0_L1D TOTAL     ACCESS:    9566955  HIT:    8846138  MISS:     720817
cpu0_L1D LOAD      ACCESS:    3872326  HIT:    3523405  MISS:     348921
cpu0_L1D RFO       ACCESS:    1989255  HIT:    1948310  MISS:      40945
cpu0_L1D PREFETCH  ACCESS:    3703120  HIT:    3372791  MISS:     330329
cpu0_L1D WRITEBACK ACCESS:          0  HIT:          0  MISS:          0
cpu0_L1D TRANSLATION ACCESS:       2254  HIT:       1632  MISS:        622
cpu0_L1D PREFETCH  REQUESTED:    3913842  ISSUED:    3832363  USEFUL:     194907  USELESS:     151016
cpu0_L1D AVERAGE MISS LATENCY: 54.2127 cycles
cpu0_L2C TOTAL     ACCESS:     970045  HIT:     718331  MISS:     251714
cpu0_L2C LOAD      ACCESS:     481594  HIT:     366447  MISS:     115147
cpu0_L2C RFO       ACCESS:      40219  HIT:      13610  MISS:      26609
cpu0_L2C PREFETCH  ACCESS:     345933  HIT:     236246  MISS:     109687
cpu0_L2C WRITEBACK ACCESS:     101677  HIT:     101473  MISS:        204
cpu0_L2C TRANSLATION ACCESS:        622  HIT:        555  MISS:         67
cpu0_L2C PREFETCH  REQUESTED:          0  ISSUED:          0  USEFUL:          0  USELESS:          0
cpu0_L2C AVERAGE MISS LATENCY: 136.22 cycles
LLC TOTAL     ACCESS:     316137  HIT:     225016  MISS:      91121
LLC LOAD      ACCESS:     115147  HIT:      82619  MISS:      32528
LLC RFO       ACCESS:      26608  HIT:       4617  MISS:      21991
LLC PREFETCH  ACCESS:     109686  HIT:      73265  MISS:      36421
LLC WRITEBACK ACCESS:      64629  HIT:      64471  MISS:        158
LLC TRANSLATION ACCESS:         67  HIT:         44  MISS:         23
LLC PREFETCH  REQUESTED:          0  ISSUED:          0  USEFUL:          0  USELESS:          0
LLC AVERAGE MISS LATENCY: 318.329 cycles

DRAM Statistics
 CHANNEL 0
 RQ ROW_BUFFER_HIT:      19426  ROW_BUFFER_MISS:      71498
 DBUS AVG_CONGESTED_CYCLE:     3.8861
 WQ ROW_BUFFER_HIT:       5606  ROW_BUFFER_MISS:      41927  FULL:          0


CPU 0 Branch Prediction Accuracy: 94.4623% MPKI: 9.58692 Average ROB Occupancy at Mispredict: 182.725
Branch type MPKI
BRANCH_DIRECT_JUMP: 0.00684
BRANCH_INDIRECT: 0.1394
BRANCH_CONDITIONAL: 8.57544
BRANCH_DIRECT_CALL: 0.00968
BRANCH_INDIRECT_CALL: 0.7376
BRANCH_RETURN: 0.11796

