WARNING: physical memory size is smaller than virtual memory size.
WARNING: option --warmup_instructions is deprecated. Use --warmup-instructions instead.
WARNING: option --simulation_instructions is deprecated. Use --simulation-instructions instead.

*** ChampSim Multicore Out-of-Order Simulator ***
Warmup Instructions: 25000000
Simulation Instructions: 25000000
Number of CPUs: 1
Page size: 4096

CPU 0 Entangling prefetcher
Off-chip DRAM Size: 4 GiB Channels: 1 Width: 64-bit Data Race: 3200 MT/s
Heartbeat CPU 0 instructions: 10000002 cycles: 2508946 heartbeat IPC: 3.986 cumulative IPC: 3.986 (Simulation time: 00 hr 00 min 24 sec)
Heartbeat CPU 0 instructions: 20000000 cycles: 5019620 heartbeat IPC: 3.983 cumulative IPC: 3.984 (Simulation time: 00 hr 00 min 49 sec)
Warmup finished CPU 0 instructions: 25000001 cycles: 6274915 cumulative IPC: 3.984 (Simulation time: 00 hr 01 min 01 sec)
Warmup complete CPU 0 instructions: 25000001 cycles: 6274915 cumulative IPC: 3.984 (Simulation time: 00 hr 01 min 01 sec)
Heartbeat CPU 0 instructions: 30000002 cycles: 8026345 heartbeat IPC: 3.326 cumulative IPC: 2.855 (Simulation time: 00 hr 01 min 17 sec)
Heartbeat CPU 0 instructions: 40000002 cycles: 11514859 heartbeat IPC: 2.867 cumulative IPC: 2.863 (Simulation time: 00 hr 01 min 48 sec)
Heartbeat CPU 0 instructions: 50000000 cycles: 14888636 heartbeat IPC: 2.964 cumulative IPC: 2.902 (Simulation time: 00 hr 02 min 20 sec)
Simulation finished CPU 0 instructions: 25000004 cycles: 8613723 cumulative IPC: 2.902 (Simulation time: 00 hr 02 min 20 sec)
Simulation complete CPU 0 instructions: 25000004 cycles: 8613723 cumulative IPC: 2.902 (Simulation time: 00 hr 02 min 20 sec)

ChampSim completed all CPUs

=== Simulation ===
CPU 0 runs ipc1_public/client_002.champsimtrace.xz
Region of Interest Statistics

CPU 0 cumulative IPC: 2.902 instructions: 25000004 cycles: 8613723
CPU 0 Branch Prediction Accuracy: 98.29% MPKI: 3.236 Average ROB Occupancy at Mispredict: 79.68
Branch type MPKI
BRANCH_DIRECT_JUMP: 0.113
BRANCH_INDIRECT: 0.677
BRANCH_CONDITIONAL: 1.63
BRANCH_DIRECT_CALL: 0.239
BRANCH_INDIRECT_CALL: 0.414
BRANCH_RETURN: 0.166

LLC TOTAL        ACCESS:     156885 HIT:     133242 MISS:      23643
LLC LOAD         ACCESS:      24979 HIT:      21576 MISS:       3403
LLC RFO          ACCESS:      33120 HIT:      17788 MISS:      15332
LLC PREFETCH     ACCESS:      57242 HIT:      52719 MISS:       4523
LLC WRITE        ACCESS:      40327 HIT:      40289 MISS:         38
LLC TRANSLATION  ACCESS:       1217 HIT:        870 MISS:        347
LLC PREFETCH REQUESTED:          0 ISSUED:          0 USEFUL:          0 USELESS:          0
LLC AVERAGE MISS LATENCY: 296.7 cycles
cpu0_DTLB TOTAL        ACCESS:    5360227 HIT:    5250685 MISS:     109542
cpu0_DTLB LOAD         ACCESS:    5360227 HIT:    5250685 MISS:     109542
cpu0_DTLB RFO          ACCESS:          0 HIT:          0 MISS:          0
cpu0_DTLB PREFETCH     ACCESS:          0 HIT:          0 MISS:          0
cpu0_DTLB WRITE        ACCESS:          0 HIT:          0 MISS:          0
cpu0_DTLB TRANSLATION  ACCESS:          0 HIT:          0 MISS:          0
cpu0_DTLB PREFETCH REQUESTED:          0 ISSUED:          0 USEFUL:          0 USELESS:          0
cpu0_DTLB AVERAGE MISS LATENCY: 6.905 cycles
cpu0_ITLB TOTAL        ACCESS:    4213085 HIT:    4019257 MISS:     193828
cpu0_ITLB LOAD         ACCESS:    4213085 HIT:    4019257 MISS:     193828
cpu0_ITLB RFO          ACCESS:          0 HIT:          0 MISS:          0
cpu0_ITLB PREFETCH     ACCESS:          0 HIT:          0 MISS:          0
cpu0_ITLB WRITE        ACCESS:          0 HIT:          0 MISS:          0
cpu0_ITLB TRANSLATION  ACCESS:          0 HIT:          0 MISS:          0
cpu0_ITLB PREFETCH REQUESTED:          0 ISSUED:          0 USEFUL:          0 USELESS:          0
cpu0_ITLB AVERAGE MISS LATENCY: 3.545 cycles
cpu0_L1D TOTAL        ACCESS:    9628285 HIT:    9221416 MISS:     406869
cpu0_L1D LOAD         ACCESS:    3823482 HIT:    3713144 MISS:     110338
cpu0_L1D RFO          ACCESS:          0 HIT:          0 MISS:          0
cpu0_L1D PREFETCH     ACCESS:    2391376 HIT:    2293345 MISS:      98031
cpu0_L1D WRITE        ACCESS:    3409244 HIT:    3214307 MISS:     194937
cpu0_L1D TRANSLATION  ACCESS:       4183 HIT:        620 MISS:       3563
cpu0_L1D PREFETCH REQUESTED:    3844344 ISSUED:    2391381 USEFUL:      22328 USELESS:      33057
cpu0_L1D AVERAGE MISS LATENCY: 22.16 cycles
cpu0_L1I TOTAL        ACCESS:    6120035 HIT:    5559308 MISS:     560727
cpu0_L1I LOAD         ACCESS:    2032340 HIT:    1844639 MISS:     187701
cpu0_L1I RFO          ACCESS:          0 HIT:          0 MISS:          0
cpu0_L1I PREFETCH     ACCESS:    4087695 HIT:    3714669 MISS:     373026
cpu0_L1I WRITE        ACCESS:          0 HIT:          0 MISS:          0
cpu0_L1I TRANSLATION  ACCESS:          0 HIT:          0 MISS:          0
cpu0_L1I PREFETCH REQUESTED:    8848445 ISSUED:    4087671 USEFUL:     216905 USELESS:     131999
cpu0_L1I AVERAGE MISS LATENCY: 10.34 cycles
cpu0_L2C TOTAL        ACCESS:     697252 HIT:     580514 MISS:     116738
cpu0_L2C LOAD         ACCESS:     178944 HIT:     153965 MISS:      24979
cpu0_L2C RFO          ACCESS:      46216 HIT:      13096 MISS:      33120
cpu0_L2C PREFETCH     ACCESS:     404297 HIT:     347055 MISS:      57242
cpu0_L2C WRITE        ACCESS:      64242 HIT:      64062 MISS:        180
cpu0_L2C TRANSLATION  ACCESS:       3553 HIT:       2336 MISS:       1217
cpu0_L2C PREFETCH REQUESTED:          0 ISSUED:          0 USEFUL:          0 USELESS:          0
cpu0_L2C AVERAGE MISS LATENCY: 80.3 cycles
cpu0_STLB TOTAL        ACCESS:     185624 HIT:     181510 MISS:       4114
cpu0_STLB LOAD         ACCESS:     185624 HIT:     181510 MISS:       4114
cpu0_STLB RFO          ACCESS:          0 HIT:          0 MISS:          0
cpu0_STLB PREFETCH     ACCESS:          0 HIT:          0 MISS:          0
cpu0_STLB WRITE        ACCESS:          0 HIT:          0 MISS:          0
cpu0_STLB TRANSLATION  ACCESS:          0 HIT:          0 MISS:          0
cpu0_STLB PREFETCH REQUESTED:          0 ISSUED:          0 USEFUL:          0 USELESS:          0
cpu0_STLB AVERAGE MISS LATENCY: 67.82 cycles

DRAM Statistics

Channel 0 RQ ROW_BUFFER_HIT:      10461
  ROW_BUFFER_MISS:      13144
 AVG DBUS CONGESTED CYCLE: 3.964
WQ ROW_BUFFER_HIT: Channel 0 
  ROW_BUFFER_MISS:       1344
  FULL:      12920
CPU 0 L1I Entangling prefetcher final stats
IP accesses: a04d 281340 29416 / 4254390
IP misses: 71f9 1c7e40 1855 / 351234
IP hits: 58a1 162840 1250 / 399690
IP late: 71f9 1c7e40 911 / 181215
IP wrong: d717 35c5c0 1140 / 247142
miss rate: 0.0825581
coverage: 0.532265
coverage_late: 0.773587
accuracy: 0.48269
accuracy_late: 0.701537
discarded: 0
evicts entangled j table: 0
evicts entangled k table: 61018
max bb size: 15
formats: 10535 3210 46448 12086 5074 17920 0 
hist_lookups: 51322 50934 40666 34043 26455 19749 14965 11356 8671 6587 4986 3713 2483 1546 592 0 0 10810 
hist_lookups_evict: 0 %
hist_lookups_shortlat: 3.74207 %
bb_found_hist: 0 1068436 535665 253743 76328 39987 18123 3615 4915 1096 1388 1435 98 0 36 28 0 0 0 0 0 0 0 0 0 0 0 0 0 0 0 0 0 0 0 0 0 0 0 0 0 0 0 0 0 0 0 0 0 0 0 0 0 0 0 0 0 0 0 0 0 0 0 0 
bb_found_summary: 3621234 2004893 1.8062
entangled_found_hist: 0 415931 460374 1115707 172693 34802 30972 0 
entangled_found_summary: 5734414 2230479 2.57094
bb_ent_found_hist: 0 2011007 1015483 647317 217144 125661 57177 17187 13121 875 8672 5305 396 0 50 54 0 0 0 0 0 0 0 0 0 0 0 0 0 0 0 0 0 0 0 0 0 0 0 0 0 0 0 0 0 0 0 0 0 0 0 0 0 0 0 0 0 0 0 0 0 0 0 0 
bb_ent_found_summary: 8208356 4119449 1.99259
