
*** ChampSim Multicore Out-of-Order Simulator ***

Warmup Instructions: 25000000
Simulation Instructions: 25000000
Number of CPUs: 1
Off-chip DRAM Size: 4 GiB Channels: 1 Width: 64-bit Data Rate: 3200 MT/s

VirtualMemory physical capacity: 8588881920 num_ppages: 2096895
VirtualMemory page size: 4096 log2_page_size: 12

CPU 0 runs ipc1_public/client_005.champsimtrace.xz
Basic BTB sets: 1024 ways: 8 indirect buffer size: 4096 RAS size: 64
CPU 0 Entangling prefetcher
cpu0_L1D next line prefetcher
WARNING: The extended signature CACHE::prefetch_line(ip, base_addr, pf_addr, fill_this_level, prefetch_metadata) is deprecated.
WARNING: Use CACHE::prefetch_line(pf_addr, fill_this_level, prefetch_metadata) instead.
Heartbeat CPU 0 instructions: 10000001 cycles: 2528801 heartbeat IPC: 3.95444 cumulative IPC: 3.95444 (Simulation time: 0 hr 0 min 26 sec) 
Heartbeat CPU 0 instructions: 20000002 cycles: 5038178 heartbeat IPC: 3.98505 cumulative IPC: 3.96969 (Simulation time: 0 hr 0 min 55 sec) 

Warmup complete CPU 0 instructions: 25000001 cycles: 6288347 (Simulation time: 0 hr 1 min 10 sec) 

Heartbeat CPU 0 instructions: 30000002 cycles: 9836271 heartbeat IPC: 2.08416 cumulative IPC: 1.40928 (Simulation time: 0 hr 1 min 33 sec) 
Heartbeat CPU 0 instructions: 40000000 cycles: 17120871 heartbeat IPC: 1.37276 cumulative IPC: 1.38472 (Simulation time: 0 hr 2 min 20 sec) 
Heartbeat CPU 0 instructions: 50000001 cycles: 26689380 heartbeat IPC: 1.04509 cumulative IPC: 1.22543 (Simulation time: 0 hr 3 min 10 sec) 
Finished CPU 0 instructions: 25000000 cycles: 20401033 cumulative IPC: 1.22543 (Simulation time: 0 hr 3 min 10 sec) 

ChampSim completed all CPUs

Region of Interest Statistics

CPU 0 cumulative IPC: 1.22543 instructions: 25000000 cycles: 20401033
cpu0_DTLB TOTAL     ACCESS:    4903015  HIT:    4833567  MISS:      69448
cpu0_DTLB LOAD      ACCESS:    2737796  HIT:    2678234  MISS:      59562
cpu0_DTLB RFO       ACCESS:    2165219  HIT:    2155333  MISS:       9886
cpu0_DTLB PREFETCH  ACCESS:          0  HIT:          0  MISS:          0
cpu0_DTLB WRITEBACK ACCESS:          0  HIT:          0  MISS:          0
cpu0_DTLB TRANSLATION ACCESS:          0  HIT:          0  MISS:          0
cpu0_DTLB PREFETCH  REQUESTED:          0  ISSUED:          0  USEFUL:          0  USELESS:          0
cpu0_DTLB AVERAGE MISS LATENCY: 14.7196 cycles
cpu0_ITLB TOTAL     ACCESS:    1745802  HIT:    1710634  MISS:      35168
cpu0_ITLB LOAD      ACCESS:    1745802  HIT:    1710634  MISS:      35168
cpu0_ITLB RFO       ACCESS:          0  HIT:          0  MISS:          0
cpu0_ITLB PREFETCH  ACCESS:          0  HIT:          0  MISS:          0
cpu0_ITLB WRITEBACK ACCESS:          0  HIT:          0  MISS:          0
cpu0_ITLB TRANSLATION ACCESS:          0  HIT:          0  MISS:          0
cpu0_ITLB PREFETCH  REQUESTED:          0  ISSUED:          0  USEFUL:          0  USELESS:          0
cpu0_ITLB AVERAGE MISS LATENCY: 9.22867 cycles
cpu0_L1I TOTAL     ACCESS:   12799388  HIT:   12242039  MISS:     557349
cpu0_L1I LOAD      ACCESS:    3230317  HIT:    3139543  MISS:      90774
cpu0_L1I RFO       ACCESS:          0  HIT:          0  MISS:          0
cpu0_L1I PREFETCH  ACCESS:    9569071  HIT:    9102496  MISS:     466575
cpu0_L1I WRITEBACK ACCESS:          0  HIT:          0  MISS:          0
cpu0_L1I TRANSLATION ACCESS:          0  HIT:          0  MISS:          0
cpu0_L1I PREFETCH  REQUESTED:   18015073  ISSUED:    9604984  USEFUL:     404040  USELESS:      78552
cpu0_L1I AVERAGE MISS LATENCY: 15.1 cycles
cpu0_STLB TOTAL     ACCESS:     104616  HIT:     100855  MISS:       3761
cpu0_STLB LOAD      ACCESS:      94730  HIT:      92548  MISS:       2182
cpu0_STLB RFO       ACCESS:       9886  HIT:       8307  MISS:       1579
cpu0_STLB PREFETCH  ACCESS:          0  HIT:          0  MISS:          0
cpu0_STLB WRITEBACK ACCESS:          0  HIT:          0  MISS:          0
cpu0_STLB TRANSLATION ACCESS:          0  HIT:          0  MISS:          0
cpu0_STLB PREFETCH  REQUESTED:          0  ISSUED:          0  USEFUL:          0  USELESS:          0
cpu0_STLB AVERAGE MISS LATENCY: 107.374 cycles
cpu0_L1D TOTAL     ACCESS:    9631610  HIT:    9356091  MISS:     275519
cpu0_L1D LOAD      ACCESS:    3065798  HIT:    2982759  MISS:      83039
cpu0_L1D RFO       ACCESS:    3553388  HIT:    3445127  MISS:     108261
cpu0_L1D PREFETCH  ACCESS:    3008773  HIT:    2925488  MISS:      83285
cpu0_L1D WRITEBACK ACCESS:          0  HIT:          0  MISS:          0
cpu0_L1D TRANSLATION ACCESS:       3651  HIT:       2717  MISS:        934
cpu0_L1D PREFETCH  REQUESTED:    3082611  ISSUED:    3062591  USEFUL:      65402  USELESS:      27203
cpu0_L1D AVERAGE MISS LATENCY: 156.218 cycles
cpu0_L2C TOTAL     ACCESS:     978419  HIT:     778038  MISS:     200381
cpu0_L2C LOAD      ACCESS:     151224  HIT:     105663  MISS:      45561
cpu0_L2C RFO       ACCESS:     105555  HIT:      13110  MISS:      92445
cpu0_L2C PREFETCH  ACCESS:     575139  HIT:     513523  MISS:      61616
cpu0_L2C WRITEBACK ACCESS:     145567  HIT:     144980  MISS:        587
cpu0_L2C TRANSLATION ACCESS:        934  HIT:        762  MISS:        172
cpu0_L2C PREFETCH  REQUESTED:          0  ISSUED:          0  USEFUL:          0  USELESS:          0
cpu0_L2C AVERAGE MISS LATENCY: 220.674 cycles
LLC TOTAL     ACCESS:     321839  HIT:     156074  MISS:     165765
LLC LOAD      ACCESS:      45561  HIT:      13294  MISS:      32267
LLC RFO       ACCESS:      92444  HIT:       2591  MISS:      89853
LLC PREFETCH  ACCESS:      61616  HIT:      18604  MISS:      43012
LLC WRITEBACK ACCESS:     122046  HIT:     121463  MISS:        583
LLC TRANSLATION ACCESS:        172  HIT:        122  MISS:         50
LLC PREFETCH  REQUESTED:          0  ISSUED:          0  USEFUL:          0  USELESS:          0
LLC AVERAGE MISS LATENCY: 241.444 cycles
CPU 0 L1I Entangling prefetcher final stats
IP accesses: a11c 284700 53901 / 3237156
IP misses: 260b 982c0 1269 / 97613
IP hits: 0 0 0 / 0
IP late: 260c 98300 1032 / 63237
IP wrong: 860d 218340 1724 / 194188
miss rate: 0.0301539
coverage: 0
coverage_late: 0.647834
accuracy: 0
accuracy_late: 0.245652
discarded: 0
evicts entangled j table: 0
evicts entangled k table: 24258
max bb size: 12
formats: 3047 0 16840 4928 2733 8823 0 
hist_lookups: 15087 19945 16960 13213 10690 7767 5363 3340 2146 1307 802 475 292 153 77 0 12 2062 
hist_lookups_evict: 0.0120372 %
hist_lookups_shortlat: 2.06839 %
bb_found_hist: 0 957221 424206 248672 139732 91849 41263 13520 44719 6562 2983 4185 583 0 0 0 0 0 0 0 0 0 0 0 0 0 0 0 0 0 0 0 0 0 0 0 0 0 0 0 0 0 0 0 0 0 0 0 0 0 0 0 0 0 0 0 0 0 0 0 0 0 0 0 
bb_found_summary: 4411711 1975495 2.23322
entangled_found_hist: 0 408943 373818 982285 133828 37075 32274 0 
entangled_found_summary: 5017765 1968223 2.54939
bb_ent_found_hist: 0 1857892 876369 546872 213432 183914 72326 90780 34489 27632 6250 14756 2513 0 0 0 0 0 0 0 0 0 0 0 0 0 0 0 0 0 0 0 0 0 0 0 0 0 0 0 0 0 0 0 0 0 0 0 0 0 0 0 0 0 0 0 0 0 0 0 0 0 0 0 
bb_ent_found_summary: 8873532 3927225 2.25949

DRAM Statistics
 CHANNEL 0
 RQ ROW_BUFFER_HIT:      52300  ROW_BUFFER_MISS:     112846
 DBUS AVG_CONGESTED_CYCLE:    3.94359
 WQ ROW_BUFFER_HIT:      15538  ROW_BUFFER_MISS:     113834  FULL:          0


CPU 0 Branch Prediction Accuracy: 95.7904% MPKI: 7.73784 Average ROB Occupancy at Mispredict: 182.844
Branch type MPKI
BRANCH_DIRECT_JUMP: 0.01288
BRANCH_INDIRECT: 0.57212
BRANCH_CONDITIONAL: 6.22528
BRANCH_DIRECT_CALL: 0.03524
BRANCH_INDIRECT_CALL: 0.41896
BRANCH_RETURN: 0.47336

