
*** ChampSim Multicore Out-of-Order Simulator ***

Warmup Instructions: 25000000
Simulation Instructions: 25000000
Number of CPUs: 1
Off-chip DRAM Size: 4 GiB Channels: 1 Width: 64-bit Data Rate: 3200 MT/s

VirtualMemory physical capacity: 8588881920 num_ppages: 2096895
VirtualMemory page size: 4096 log2_page_size: 12

CPU 0 runs ipc1_public/client_001.champsimtrace.xz
Basic BTB sets: 1024 ways: 8 indirect buffer size: 4096 RAS size: 64
CPU 0 next line instruction prefetcher
cpu0_L1D next line prefetcher
WARNING: The extended signature CACHE::prefetch_line(ip, base_addr, pf_addr, fill_this_level, prefetch_metadata) is deprecated.
WARNING: Use CACHE::prefetch_line(pf_addr, fill_this_level, prefetch_metadata) instead.
Heartbeat CPU 0 instructions: 10000002 cycles: 2694938 heartbeat IPC: 3.71066 cumulative IPC: 3.71066 (Simulation time: 0 hr 0 min 25 sec) 
Heartbeat CPU 0 instructions: 20000001 cycles: 5626774 heartbeat IPC: 3.41083 cumulative IPC: 3.55443 (Simulation time: 0 hr 0 min 53 sec) 

Warmup complete CPU 0 instructions: 25000003 cycles: 6880561 (Simulation time: 0 hr 1 min 4 sec) 

Heartbeat CPU 0 instructions: 30000003 cycles: 10709556 heartbeat IPC: 1.96743 cumulative IPC: 1.30583 (Simulation time: 0 hr 1 min 24 sec) 
Heartbeat CPU 0 instructions: 40000000 cycles: 17824470 heartbeat IPC: 1.4055 cumulative IPC: 1.37063 (Simulation time: 0 hr 2 min 4 sec) 
Heartbeat CPU 0 instructions: 50000001 cycles: 23657129 heartbeat IPC: 1.71448 cumulative IPC: 1.49017 (Simulation time: 0 hr 2 min 39 sec) 
Finished CPU 0 instructions: 25000003 cycles: 16776569 cumulative IPC: 1.49017 (Simulation time: 0 hr 2 min 39 sec) 

ChampSim completed all CPUs

Region of Interest Statistics

CPU 0 cumulative IPC: 1.49017 instructions: 25000003 cycles: 16776569
cpu0_DTLB TOTAL     ACCESS:    5140541  HIT:    5003045  MISS:     137496
cpu0_DTLB LOAD      ACCESS:    3840153  HIT:    3708476  MISS:     131677
cpu0_DTLB RFO       ACCESS:    1300388  HIT:    1294569  MISS:       5819
cpu0_DTLB PREFETCH  ACCESS:          0  HIT:          0  MISS:          0
cpu0_DTLB WRITEBACK ACCESS:          0  HIT:          0  MISS:          0
cpu0_DTLB TRANSLATION ACCESS:          0  HIT:          0  MISS:          0
cpu0_DTLB PREFETCH  REQUESTED:          0  ISSUED:          0  USEFUL:          0  USELESS:          0
cpu0_DTLB AVERAGE MISS LATENCY: 10.1571 cycles
cpu0_ITLB TOTAL     ACCESS:    1577654  HIT:    1549235  MISS:      28419
cpu0_ITLB LOAD      ACCESS:    1577654  HIT:    1549235  MISS:      28419
cpu0_ITLB RFO       ACCESS:          0  HIT:          0  MISS:          0
cpu0_ITLB PREFETCH  ACCESS:          0  HIT:          0  MISS:          0
cpu0_ITLB WRITEBACK ACCESS:          0  HIT:          0  MISS:          0
cpu0_ITLB TRANSLATION ACCESS:          0  HIT:          0  MISS:          0
cpu0_ITLB PREFETCH  REQUESTED:          0  ISSUED:          0  USEFUL:          0  USELESS:          0
cpu0_ITLB AVERAGE MISS LATENCY: 10.0395 cycles
cpu0_L1I TOTAL     ACCESS:    4246325  HIT:    4030575  MISS:     215750
cpu0_L1I LOAD      ACCESS:    2167550  HIT:    2031747  MISS:     135803
cpu0_L1I RFO       ACCESS:          0  HIT:          0  MISS:          0
cpu0_L1I PREFETCH  ACCESS:    2078775  HIT:    1998828  MISS:      79947
cpu0_L1I WRITEBACK ACCESS:          0  HIT:          0  MISS:          0
cpu0_L1I TRANSLATION ACCESS:          0  HIT:          0  MISS:          0
cpu0_L1I PREFETCH  REQUESTED:    2175222  ISSUED:    2175070  USEFUL:      63511  USELESS:      23783
cpu0_L1I AVERAGE MISS LATENCY: 20.53 cycles
cpu0_STLB TOTAL     ACCESS:     165915  HIT:     163637  MISS:       2278
cpu0_STLB LOAD      ACCESS:     160096  HIT:     158188  MISS:       1908
cpu0_STLB RFO       ACCESS:       5819  HIT:       5449  MISS:        370
cpu0_STLB PREFETCH  ACCESS:          0  HIT:          0  MISS:          0
cpu0_STLB WRITEBACK ACCESS:          0  HIT:          0  MISS:          0
cpu0_STLB TRANSLATION ACCESS:          0  HIT:          0  MISS:          0
cpu0_STLB PREFETCH  REQUESTED:          0  ISSUED:          0  USEFUL:          0  USELESS:          0
cpu0_STLB AVERAGE MISS LATENCY: 80.4794 cycles
cpu0_L1D TOTAL     ACCESS:    9567398  HIT:    8846420  MISS:     720978
cpu0_L1D LOAD      ACCESS:    3872965  HIT:    3523657  MISS:     349308
cpu0_L1D RFO       ACCESS:    1988820  HIT:    1947862  MISS:      40958
cpu0_L1D PREFETCH  ACCESS:    3703360  HIT:    3373269  MISS:     330091
cpu0_L1D WRITEBACK ACCESS:          0  HIT:          0  MISS:          0
cpu0_L1D TRANSLATION ACCESS:       2253  HIT:       1632  MISS:        621
cpu0_L1D PREFETCH  REQUESTED:    3914584  ISSUED:    3833805  USEFUL:     196577  USELESS:     150298
cpu0_L1D AVERAGE MISS LATENCY: 54.7468 cycles
cpu0_L2C TOTAL     ACCESS:    1038383  HIT:     783329  MISS:     255054
cpu0_L2C LOAD      ACCESS:     461687  HIT:     350147  MISS:     111540
cpu0_L2C RFO       ACCESS:      40227  HIT:      13762  MISS:      26465
cpu0_L2C PREFETCH  ACCESS:     434169  HIT:     317368  MISS:     116801
cpu0_L2C WRITEBACK ACCESS:     101679  HIT:     101501  MISS:        178
cpu0_L2C TRANSLATION ACCESS:        621  HIT:        551  MISS:         70
cpu0_L2C PREFETCH  REQUESTED:          0  ISSUED:          0  USEFUL:          0  USELESS:          0
cpu0_L2C AVERAGE MISS LATENCY: 139.111 cycles
LLC TOTAL     ACCESS:     319961  HIT:     228152  MISS:      91809
LLC LOAD      ACCESS:     111537  HIT:      80760  MISS:      30777
LLC RFO       ACCESS:      26464  HIT:       4533  MISS:      21931
LLC PREFETCH  ACCESS:     116801  HIT:      77893  MISS:      38908
LLC WRITEBACK ACCESS:      65089  HIT:      64918  MISS:        171
LLC TRANSLATION ACCESS:         70  HIT:         48  MISS:         22
LLC PREFETCH  REQUESTED:          0  ISSUED:          0  USEFUL:          0  USELESS:          0
LLC AVERAGE MISS LATENCY: 328.161 cycles

DRAM Statistics
 CHANNEL 0
 RQ ROW_BUFFER_HIT:      19454  ROW_BUFFER_MISS:      72152
 DBUS AVG_CONGESTED_CYCLE:    3.88909
 WQ ROW_BUFFER_HIT:       5372  ROW_BUFFER_MISS:      42449  FULL:          0


CPU 0 Branch Prediction Accuracy: 94.4623% MPKI: 9.58692 Average ROB Occupancy at Mispredict: 183.642
Branch type MPKI
BRANCH_DIRECT_JUMP: 0.00684
BRANCH_INDIRECT: 0.1394
BRANCH_CONDITIONAL: 8.57544
BRANCH_DIRECT_CALL: 0.00968
BRANCH_INDIRECT_CALL: 0.7376
BRANCH_RETURN: 0.11796

