
*** ChampSim Multicore Out-of-Order Simulator ***

Warmup Instructions: 25000000
Simulation Instructions: 25000000
Number of CPUs: 1
Off-chip DRAM Size: 4 GiB Channels: 1 Width: 64-bit Data Rate: 3200 MT/s

VirtualMemory physical capacity: 8588881920 num_ppages: 2096895
VirtualMemory page size: 4096 log2_page_size: 12

CPU 0 runs ipc1_public/client_003.champsimtrace.xz
Basic BTB sets: 1024 ways: 8 indirect buffer size: 4096 RAS size: 64
CPU 0 Entangling prefetcher
CPU 0 Entangling TLB prefetcher
cpu0_L1D next line prefetcher
WARNING: The extended signature CACHE::prefetch_line(ip, base_addr, pf_addr, fill_this_level, prefetch_metadata) is deprecated.
WARNING: Use CACHE::prefetch_line(pf_addr, fill_this_level, prefetch_metadata) instead.
Heartbeat CPU 0 instructions: 10000003 cycles: 2504503 heartbeat IPC: 3.99281 cumulative IPC: 3.99281 (Simulation time: 0 hr 0 min 29 sec) 
Heartbeat CPU 0 instructions: 20000002 cycles: 5011976 heartbeat IPC: 3.98808 cumulative IPC: 3.99044 (Simulation time: 0 hr 0 min 58 sec) 

Warmup complete CPU 0 instructions: 25000004 cycles: 6262323 (Simulation time: 0 hr 1 min 13 sec) 

Heartbeat CPU 0 instructions: 30000003 cycles: 9548610 heartbeat IPC: 2.20428 cumulative IPC: 1.52147 (Simulation time: 0 hr 1 min 34 sec) 
Heartbeat CPU 0 instructions: 40000000 cycles: 15950002 heartbeat IPC: 1.56216 cumulative IPC: 1.54836 (Simulation time: 0 hr 2 min 16 sec) 
Heartbeat CPU 0 instructions: 50000004 cycles: 21888696 heartbeat IPC: 1.68387 cumulative IPC: 1.59986 (Simulation time: 0 hr 2 min 57 sec) 
Finished CPU 0 instructions: 25000000 cycles: 15626373 cumulative IPC: 1.59986 (Simulation time: 0 hr 2 min 57 sec) 

ChampSim completed all CPUs

Region of Interest Statistics

CPU 0 cumulative IPC: 1.59986 instructions: 25000000 cycles: 15626373
cpu0_DTLB TOTAL     ACCESS:    5012632  HIT:    4959339  MISS:      53293
cpu0_DTLB LOAD      ACCESS:    2845778  HIT:    2797968  MISS:      47810
cpu0_DTLB RFO       ACCESS:    2166854  HIT:    2161371  MISS:       5483
cpu0_DTLB PREFETCH  ACCESS:          0  HIT:          0  MISS:          0
cpu0_DTLB WRITEBACK ACCESS:          0  HIT:          0  MISS:          0
cpu0_DTLB TRANSLATION ACCESS:          0  HIT:          0  MISS:          0
cpu0_DTLB PREFETCH  REQUESTED:          0  ISSUED:          0  USEFUL:          0  USELESS:          0
cpu0_DTLB AVERAGE MISS LATENCY: 10.3311 cycles
cpu0_ITLB TOTAL     ACCESS:    1732434  HIT:    1704382  MISS:      28052
cpu0_ITLB LOAD      ACCESS:    1732434  HIT:    1704382  MISS:      28052
cpu0_ITLB RFO       ACCESS:          0  HIT:          0  MISS:          0
cpu0_ITLB PREFETCH  ACCESS:          0  HIT:          0  MISS:          0
cpu0_ITLB WRITEBACK ACCESS:          0  HIT:          0  MISS:          0
cpu0_ITLB TRANSLATION ACCESS:          0  HIT:          0  MISS:          0
cpu0_ITLB PREFETCH  REQUESTED:          0  ISSUED:          0  USEFUL:          0  USELESS:          0
cpu0_ITLB AVERAGE MISS LATENCY: 9.36464 cycles
cpu0_L1I TOTAL     ACCESS:   11319991  HIT:   10839913  MISS:     480078
cpu0_L1I LOAD      ACCESS:    2738129  HIT:    2675594  MISS:      62535
cpu0_L1I RFO       ACCESS:          0  HIT:          0  MISS:          0
cpu0_L1I PREFETCH  ACCESS:    8581862  HIT:    8164319  MISS:     417543
cpu0_L1I WRITEBACK ACCESS:          0  HIT:          0  MISS:          0
cpu0_L1I TRANSLATION ACCESS:          0  HIT:          0  MISS:          0
cpu0_L1I PREFETCH  REQUESTED:   11930688  ISSUED:    8616318  USEFUL:     372306  USELESS:      64216
cpu0_L1I AVERAGE MISS LATENCY: 17.0518 cycles
cpu0_STLB TOTAL     ACCESS:      81345  HIT:      80557  MISS:        788
cpu0_STLB LOAD      ACCESS:      75862  HIT:      75438  MISS:        424
cpu0_STLB RFO       ACCESS:       5483  HIT:       5119  MISS:        364
cpu0_STLB PREFETCH  ACCESS:          0  HIT:          0  MISS:          0
cpu0_STLB WRITEBACK ACCESS:          0  HIT:          0  MISS:          0
cpu0_STLB TRANSLATION ACCESS:          0  HIT:          0  MISS:          0
cpu0_STLB PREFETCH  REQUESTED:      68686  ISSUED:          0  USEFUL:          0  USELESS:          0
cpu0_STLB AVERAGE MISS LATENCY: 101.815 cycles
cpu0_L1D TOTAL     ACCESS:   10080526  HIT:    9865898  MISS:     214628
cpu0_L1D LOAD      ACCESS:    3214854  HIT:    3151112  MISS:      63742
cpu0_L1D RFO       ACCESS:    3690825  HIT:    3610402  MISS:      80423
cpu0_L1D PREFETCH  ACCESS:    3174062  HIT:    3104058  MISS:      70004
cpu0_L1D WRITEBACK ACCESS:          0  HIT:          0  MISS:          0
cpu0_L1D TRANSLATION ACCESS:        785  HIT:        326  MISS:        459
cpu0_L1D PREFETCH  REQUESTED:    3222969  ISSUED:    3204032  USEFUL:      51817  USELESS:      22093
cpu0_L1D AVERAGE MISS LATENCY: 58.2082 cycles
cpu0_L2C TOTAL     ACCESS:     801060  HIT:     648829  MISS:     152231
cpu0_L2C LOAD      ACCESS:     104710  HIT:      76662  MISS:      28048
cpu0_L2C RFO       ACCESS:      79063  HIT:      15728  MISS:      63335
cpu0_L2C PREFETCH  ACCESS:     510455  HIT:     450459  MISS:      59996
cpu0_L2C WRITEBACK ACCESS:     106373  HIT:     105611  MISS:        762
cpu0_L2C TRANSLATION ACCESS:        459  HIT:        369  MISS:         90
cpu0_L2C PREFETCH  REQUESTED:          0  ISSUED:          0  USEFUL:          0  USELESS:          0
cpu0_L2C AVERAGE MISS LATENCY: 91.8809 cycles
LLC TOTAL     ACCESS:     235980  HIT:     184875  MISS:      51105
LLC LOAD      ACCESS:      28047  HIT:      21632  MISS:       6415
LLC RFO       ACCESS:      63333  HIT:      33587  MISS:      29746
LLC PREFETCH  ACCESS:      59996  HIT:      45326  MISS:      14670
LLC WRITEBACK ACCESS:      84514  HIT:      84254  MISS:        260
LLC TRANSLATION ACCESS:         90  HIT:         76  MISS:         14
LLC PREFETCH  REQUESTED:          0  ISSUED:          0  USEFUL:          0  USELESS:          0
LLC AVERAGE MISS LATENCY: 211.447 cycles
CPU 0 L1I Entangling prefetcher final stats
IP accesses: 349c d2700 45207 / 2741879
IP misses: 430b 10c2c0 1057 / 66285
IP hits: 0 0 0 / 0
IP late: 430b 10c2c0 835 / 38311
IP wrong: 430d 10c340 1800 / 167225
miss rate: 0.024175
coverage: 0
coverage_late: 0.577974
accuracy: 0
accuracy_late: 0.186396
discarded: 0
evicts entangled j table: 0
evicts entangled k table: 22533
max bb size: 15
formats: 0 27149 7 0 0 5975 0 
hist_lookups: 15128 19559 14545 10606 8004 5782 3662 2459 1635 1011 659 412 264 158 91 0 9 2080 
hist_lookups_evict: 0.0104573 %
hist_lookups_shortlat: 2.41681 %
bb_found_hist: 0 737970 488307 222046 93866 59955 34901 15392 29917 19623 4615 1298 54 22 0 2 0 0 0 0 0 0 0 0 0 0 0 0 0 0 0 0 0 0 0 0 0 0 0 0 0 0 0 0 0 0 0 0 0 0 0 0 0 0 0 0 0 0 0 0 0 0 0 0 
bb_found_summary: 3850446 1707968 2.2544
entangled_found_hist: 0 470340 1230463 13939 3595 1305 574 0 
entangled_found_summary: 2997432 1720216 1.74247
bb_ent_found_hist: 0 1045850 568000 361153 110217 99092 27884 66046 27635 10591 4512 3702 136 53 0 2 0 0 0 0 0 0 0 0 0 0 0 0 0 0 0 0 0 0 0 0 0 0 0 0 0 0 0 0 0 0 0 0 0 0 0 0 0 0 0 0 0 0 0 0 0 0 0 0 
bb_ent_found_summary: 5235855 2324873 2.2521
CPU 0 TLB Entangling prefetcher final stats
ACCESS:0 HIT:0 MISS:0
IP accesses: 7c04 7c04000 2838 / 75862
IP misses: 710 710000 10 / 424
IP hits: 0 0 0 / 0
IP late: 0 0 0 / 0
IP wrong: 0 0 0 / 0
miss rate: 0.0055891
coverage: 0
coverage_late: 0
accuracy: -nan
accuracy_late: -nan
discarded: 0
evicts entangled j table: 0
evicts entangled k table: 20
max bb size: 20
formats: 7 156 20 77 32 62 0 
hist_lookups: 437 305 67 28 19 16 6 4 7 2 0 2 1 0 0 0 0 0 
hist_lookups_evict: 0 %
hist_lookups_shortlat: 0 %
bb_found_hist: 0 14829 951 414 192 97 110 75 55 21 1 0 0 0 0 0 
bb_found_summary: 21050 16745 1.25709
entangled_found_hist: 0 12379 12783 218 0 0 0 0 
entangled_found_summary: 38599 25380 1.52084
bb_ent_found_hist: 0 7241 885 5 4 0 0 0 0 0 0 0 0 0 0 0 
bb_ent_found_summary: 9042 8135 1.11149

DRAM Statistics
 CHANNEL 0
 RQ ROW_BUFFER_HIT:      17525  ROW_BUFFER_MISS:      33305
 DBUS AVG_CONGESTED_CYCLE:    3.93075
 WQ ROW_BUFFER_HIT:       4651  ROW_BUFFER_MISS:      30626  FULL:          0


CPU 0 Branch Prediction Accuracy: 96.1104% MPKI: 7.07976 Average ROB Occupancy at Mispredict: 182.244
Branch type MPKI
BRANCH_DIRECT_JUMP: 0.03796
BRANCH_INDIRECT: 0.72836
BRANCH_CONDITIONAL: 5.65404
BRANCH_DIRECT_CALL: 0.07904
BRANCH_INDIRECT_CALL: 0.38616
BRANCH_RETURN: 0.1942

