WARNING: physical memory size is smaller than virtual memory size.
WARNING: option --warmup_instructions is deprecated. Use --warmup-instructions instead.
WARNING: option --simulation_instructions is deprecated. Use --simulation-instructions instead.

*** ChampSim Multicore Out-of-Order Simulator ***
Warmup Instructions: 25000000
Simulation Instructions: 25000000
Number of CPUs: 1
Page size: 4096

Off-chip DRAM Size: 4 GiB Channels: 1 Width: 64-bit Data Race: 3200 MT/s
Heartbeat CPU 0 instructions: 10000001 cycles: 2505770 heartbeat IPC: 3.991 cumulative IPC: 3.991 (Simulation time: 00 hr 00 min 21 sec)
Heartbeat CPU 0 instructions: 20000000 cycles: 5007178 heartbeat IPC: 3.998 cumulative IPC: 3.994 (Simulation time: 00 hr 00 min 41 sec)
Warmup finished CPU 0 instructions: 25000002 cycles: 6259221 cumulative IPC: 3.994 (Simulation time: 00 hr 00 min 52 sec)
Warmup complete CPU 0 instructions: 25000002 cycles: 6259221 cumulative IPC: 3.994 (Simulation time: 00 hr 00 min 52 sec)
Heartbeat CPU 0 instructions: 30000002 cycles: 9111877 heartbeat IPC: 2.436 cumulative IPC: 1.753 (Simulation time: 00 hr 01 min 10 sec)
Heartbeat CPU 0 instructions: 40000002 cycles: 13664649 heartbeat IPC: 2.196 cumulative IPC: 2.026 (Simulation time: 00 hr 01 min 43 sec)
Heartbeat CPU 0 instructions: 50000002 cycles: 17992399 heartbeat IPC: 2.311 cumulative IPC: 2.131 (Simulation time: 00 hr 02 min 15 sec)
Simulation finished CPU 0 instructions: 25000000 cycles: 11733179 cumulative IPC: 2.131 (Simulation time: 00 hr 02 min 15 sec)
Simulation complete CPU 0 instructions: 25000000 cycles: 11733179 cumulative IPC: 2.131 (Simulation time: 00 hr 02 min 15 sec)

ChampSim completed all CPUs

=== Simulation ===
CPU 0 runs ipc1_public/client_001.champsimtrace.xz
Region of Interest Statistics

CPU 0 cumulative IPC: 2.131 instructions: 25000000 cycles: 11733179
CPU 0 Branch Prediction Accuracy: 97.46% MPKI: 4.395 Average ROB Occupancy at Mispredict: 122.9
Branch type MPKI
BRANCH_DIRECT_JUMP: 0.0076
BRANCH_INDIRECT: 0.14
BRANCH_CONDITIONAL: 3.37
BRANCH_DIRECT_CALL: 0.0103
BRANCH_INDIRECT_CALL: 0.738
BRANCH_RETURN: 0.126

LLC TOTAL        ACCESS:     293395 HIT:     207209 MISS:      86186
LLC LOAD         ACCESS:     126881 HIT:      91689 MISS:      35192
LLC RFO          ACCESS:      25596 HIT:       4590 MISS:      21006
LLC PREFETCH     ACCESS:      76177 HIT:      47479 MISS:      28698
LLC WRITE        ACCESS:      63304 HIT:      63198 MISS:        106
LLC TRANSLATION  ACCESS:       1437 HIT:        253 MISS:       1184
LLC PREFETCH REQUESTED:          0 ISSUED:          0 USEFUL:          0 USELESS:          0
LLC AVERAGE MISS LATENCY: 405.1 cycles
cpu0_DTLB TOTAL        ACCESS:    5391690 HIT:    5188105 MISS:     203585
cpu0_DTLB LOAD         ACCESS:    5391690 HIT:    5188105 MISS:     203585
cpu0_DTLB RFO          ACCESS:          0 HIT:          0 MISS:          0
cpu0_DTLB PREFETCH     ACCESS:          0 HIT:          0 MISS:          0
cpu0_DTLB WRITE        ACCESS:          0 HIT:          0 MISS:          0
cpu0_DTLB TRANSLATION  ACCESS:          0 HIT:          0 MISS:          0
cpu0_DTLB PREFETCH REQUESTED:          0 ISSUED:          0 USEFUL:          0 USELESS:          0
cpu0_DTLB AVERAGE MISS LATENCY: 6.678 cycles
cpu0_ITLB TOTAL        ACCESS:    1118607 HIT:    1038467 MISS:      80140
cpu0_ITLB LOAD         ACCESS:    1118607 HIT:    1038467 MISS:      80140
cpu0_ITLB RFO          ACCESS:          0 HIT:          0 MISS:          0
cpu0_ITLB PREFETCH     ACCESS:          0 HIT:          0 MISS:          0
cpu0_ITLB WRITE        ACCESS:          0 HIT:          0 MISS:          0
cpu0_ITLB TRANSLATION  ACCESS:          0 HIT:          0 MISS:          0
cpu0_ITLB PREFETCH REQUESTED:          0 ISSUED:          0 USEFUL:          0 USELESS:          0
cpu0_ITLB AVERAGE MISS LATENCY: 3.012 cycles
cpu0_L1D TOTAL        ACCESS:    9344334 HIT:    8291121 MISS:    1053213
cpu0_L1D LOAD         ACCESS:    4692205 HIT:    4083017 MISS:     609188
cpu0_L1D RFO          ACCESS:          0 HIT:          0 MISS:          0
cpu0_L1D PREFETCH     ACCESS:    2542959 HIT:    2247376 MISS:     295583
cpu0_L1D WRITE        ACCESS:    2106794 HIT:    1960326 MISS:     146468
cpu0_L1D TRANSLATION  ACCESS:       2376 HIT:        402 MISS:       1974
cpu0_L1D PREFETCH REQUESTED:    4875028 ISSUED:    2542959 USEFUL:      50072 USELESS:      88598
cpu0_L1D AVERAGE MISS LATENCY: 38.12 cycles
cpu0_L1I TOTAL        ACCESS:    1301854 HIT:    1044197 MISS:     257657
cpu0_L1I LOAD         ACCESS:    1301854 HIT:    1044197 MISS:     257657
cpu0_L1I RFO          ACCESS:          0 HIT:          0 MISS:          0
cpu0_L1I PREFETCH     ACCESS:          0 HIT:          0 MISS:          0
cpu0_L1I WRITE        ACCESS:          0 HIT:          0 MISS:          0
cpu0_L1I TRANSLATION  ACCESS:          0 HIT:          0 MISS:          0
cpu0_L1I PREFETCH REQUESTED:          0 ISSUED:          0 USEFUL:          0 USELESS:          0
cpu0_L1I AVERAGE MISS LATENCY: 11.58 cycles
cpu0_L2C TOTAL        ACCESS:     812232 HIT:     582011 MISS:     230221
cpu0_L2C LOAD         ACCESS:     528469 HIT:     401587 MISS:     126882
cpu0_L2C RFO          ACCESS:      41368 HIT:      15772 MISS:      25596
cpu0_L2C PREFETCH     ACCESS:     138704 HIT:      62527 MISS:      76177
cpu0_L2C WRITE        ACCESS:     101725 HIT:     101596 MISS:        129
cpu0_L2C TRANSLATION  ACCESS:       1966 HIT:        529 MISS:       1437
cpu0_L2C PREFETCH REQUESTED:          0 ISSUED:          0 USEFUL:          0 USELESS:          0
cpu0_L2C AVERAGE MISS LATENCY: 172 cycles
cpu0_STLB TOTAL        ACCESS:     165140 HIT:     162862 MISS:       2278
cpu0_STLB LOAD         ACCESS:     165140 HIT:     162862 MISS:       2278
cpu0_STLB RFO          ACCESS:          0 HIT:          0 MISS:          0
cpu0_STLB PREFETCH     ACCESS:          0 HIT:          0 MISS:          0
cpu0_STLB WRITE        ACCESS:          0 HIT:          0 MISS:          0
cpu0_STLB TRANSLATION  ACCESS:          0 HIT:          0 MISS:          0
cpu0_STLB PREFETCH REQUESTED:          0 ISSUED:          0 USEFUL:          0 USELESS:          0
cpu0_STLB AVERAGE MISS LATENCY: 309.9 cycles

DRAM Statistics

Channel 0 RQ ROW_BUFFER_HIT:      23201
  ROW_BUFFER_MISS:      62865
 AVG DBUS CONGESTED CYCLE: 3.942
WQ ROW_BUFFER_HIT: Channel 0 
  ROW_BUFFER_MISS:       5447
  FULL:      40860
