
*** ChampSim Multicore Out-of-Order Simulator ***

Warmup Instructions: 25000000
Simulation Instructions: 25000000
Number of CPUs: 1
Off-chip DRAM Size: 4 GiB Channels: 1 Width: 64-bit Data Rate: 3200 MT/s

VirtualMemory physical capacity: 8588881920 num_ppages: 2096895
VirtualMemory page size: 4096 log2_page_size: 12

CPU 0 runs ipc1_public/client_002.champsimtrace.xz
Basic BTB sets: 1024 ways: 8 indirect buffer size: 4096 RAS size: 64
CPU 0 Entangling prefetcher
cpu0_STLB next line prefetcher
cpu0_L1D next line prefetcher
WARNING: The extended signature CACHE::prefetch_line(ip, base_addr, pf_addr, fill_this_level, prefetch_metadata) is deprecated.
WARNING: Use CACHE::prefetch_line(pf_addr, fill_this_level, prefetch_metadata) instead.
Heartbeat CPU 0 instructions: 10000002 cycles: 2511629 heartbeat IPC: 3.98148 cumulative IPC: 3.98148 (Simulation time: 0 hr 0 min 30 sec) 
Heartbeat CPU 0 instructions: 20000003 cycles: 5023319 heartbeat IPC: 3.98138 cumulative IPC: 3.98143 (Simulation time: 0 hr 1 min 0 sec) 

Warmup complete CPU 0 instructions: 25000001 cycles: 6279042 (Simulation time: 0 hr 1 min 16 sec) 

Heartbeat CPU 0 instructions: 30000000 cycles: 9194518 heartbeat IPC: 2.39739 cumulative IPC: 1.71499 (Simulation time: 0 hr 1 min 38 sec) 
Heartbeat CPU 0 instructions: 40000000 cycles: 14983853 heartbeat IPC: 1.72731 cumulative IPC: 1.72318 (Simulation time: 0 hr 2 min 23 sec) 
Heartbeat CPU 0 instructions: 50000004 cycles: 20705750 heartbeat IPC: 1.74767 cumulative IPC: 1.7329 (Simulation time: 0 hr 3 min 7 sec) 
Finished CPU 0 instructions: 25000003 cycles: 14426708 cumulative IPC: 1.7329 (Simulation time: 0 hr 3 min 7 sec) 

ChampSim completed all CPUs

Region of Interest Statistics

CPU 0 cumulative IPC: 1.7329 instructions: 25000003 cycles: 14426708
cpu0_DTLB TOTAL     ACCESS:    4707444  HIT:    4626075  MISS:      81369
cpu0_DTLB LOAD      ACCESS:    2827587  HIT:    2751432  MISS:      76155
cpu0_DTLB RFO       ACCESS:    1879857  HIT:    1874643  MISS:       5214
cpu0_DTLB PREFETCH  ACCESS:          0  HIT:          0  MISS:          0
cpu0_DTLB WRITEBACK ACCESS:          0  HIT:          0  MISS:          0
cpu0_DTLB TRANSLATION ACCESS:          0  HIT:          0  MISS:          0
cpu0_DTLB PREFETCH  REQUESTED:          0  ISSUED:          0  USEFUL:          0  USELESS:          0
cpu0_DTLB AVERAGE MISS LATENCY: 10.4454 cycles
cpu0_ITLB TOTAL     ACCESS:    1797445  HIT:    1748219  MISS:      49226
cpu0_ITLB LOAD      ACCESS:    1797445  HIT:    1748219  MISS:      49226
cpu0_ITLB RFO       ACCESS:          0  HIT:          0  MISS:          0
cpu0_ITLB PREFETCH  ACCESS:          0  HIT:          0  MISS:          0
cpu0_ITLB WRITEBACK ACCESS:          0  HIT:          0  MISS:          0
cpu0_ITLB TRANSLATION ACCESS:          0  HIT:          0  MISS:          0
cpu0_ITLB PREFETCH  REQUESTED:          0  ISSUED:          0  USEFUL:          0  USELESS:          0
cpu0_ITLB AVERAGE MISS LATENCY: 9.31093 cycles
cpu0_L1I TOTAL     ACCESS:    9741035  HIT:    9274074  MISS:     466961
cpu0_L1I LOAD      ACCESS:    2516786  HIT:    2445618  MISS:      71168
cpu0_L1I RFO       ACCESS:          0  HIT:          0  MISS:          0
cpu0_L1I PREFETCH  ACCESS:    7224249  HIT:    6828456  MISS:     395793
cpu0_L1I WRITEBACK ACCESS:          0  HIT:          0  MISS:          0
cpu0_L1I TRANSLATION ACCESS:          0  HIT:          0  MISS:          0
cpu0_L1I PREFETCH  REQUESTED:   11576980  ISSUED:    7254900  USEFUL:     352485  USELESS:      57537
cpu0_L1I AVERAGE MISS LATENCY: 13.1295 cycles
cpu0_STLB TOTAL     ACCESS:     130595  HIT:     126595  MISS:       4000
cpu0_STLB LOAD      ACCESS:     125381  HIT:     121646  MISS:       3735
cpu0_STLB RFO       ACCESS:       5214  HIT:       4949  MISS:        265
cpu0_STLB PREFETCH  ACCESS:          0  HIT:          0  MISS:          0
cpu0_STLB WRITEBACK ACCESS:          0  HIT:          0  MISS:          0
cpu0_STLB TRANSLATION ACCESS:          0  HIT:          0  MISS:          0
cpu0_STLB PREFETCH  REQUESTED:     125381  ISSUED:          0  USEFUL:          0  USELESS:          0
cpu0_STLB AVERAGE MISS LATENCY: 32.6848 cycles
cpu0_L1D TOTAL     ACCESS:    9392439  HIT:    9220877  MISS:     171562
cpu0_L1D LOAD      ACCESS:    3103080  HIT:    3043504  MISS:      59576
cpu0_L1D RFO       ACCESS:    3219316  HIT:    3174024  MISS:      45292
cpu0_L1D PREFETCH  ACCESS:    3066077  HIT:    3000169  MISS:      65908
cpu0_L1D WRITEBACK ACCESS:          0  HIT:          0  MISS:          0
cpu0_L1D TRANSLATION ACCESS:       3966  HIT:       3180  MISS:        786
cpu0_L1D PREFETCH  REQUESTED:    3108964  ISSUED:    3093597  USEFUL:      56208  USELESS:      14514
cpu0_L1D AVERAGE MISS LATENCY: 50.0396 cycles
cpu0_L2C TOTAL     ACCESS:     701499  HIT:     581607  MISS:     119892
cpu0_L2C LOAD      ACCESS:     112517  HIT:      89263  MISS:      23254
cpu0_L2C RFO       ACCESS:      44426  HIT:      10860  MISS:      33566
cpu0_L2C PREFETCH  ACCESS:     480787  HIT:     418295  MISS:      62492
cpu0_L2C WRITEBACK ACCESS:      62983  HIT:      62452  MISS:        531
cpu0_L2C TRANSLATION ACCESS:        786  HIT:        737  MISS:         49
cpu0_L2C PREFETCH  REQUESTED:          0  ISSUED:          0  USEFUL:          0  USELESS:          0
cpu0_L2C AVERAGE MISS LATENCY: 67.7248 cycles
LLC TOTAL     ACCESS:     162072  HIT:     138781  MISS:      23291
LLC LOAD      ACCESS:      23253  HIT:      19836  MISS:       3417
LLC RFO       ACCESS:      33565  HIT:      18758  MISS:      14807
LLC PREFETCH  ACCESS:      62491  HIT:      57470  MISS:       5021
LLC WRITEBACK ACCESS:      42714  HIT:      42673  MISS:         41
LLC TRANSLATION ACCESS:         49  HIT:         44  MISS:          5
LLC PREFETCH  REQUESTED:          0  ISSUED:          0  USEFUL:          0  USELESS:          0
LLC AVERAGE MISS LATENCY: 240.993 cycles
CPU 0 L1I Entangling prefetcher final stats
IP accesses: ca30 328c00 20573 / 2521356
IP misses: c47f 311fc0 481 / 75739
IP hits: 0 0 0 / 0
IP late: c3ac 30eb00 357 / 47672
IP wrong: a0a5 282940 604 / 132936
miss rate: 0.030039
coverage: 0
coverage_late: 0.629425
accuracy: 0
accuracy_late: 0.263953
discarded: 0
evicts entangled j table: 0
evicts entangled k table: 18515
max bb size: 15
formats: 2855 1244 15303 3205 2278 5673 0 
hist_lookups: 10723 14754 13529 10608 9111 6509 4683 3315 2499 1589 894 723 336 142 169 0 0 2749 
hist_lookups_evict: 0 %
hist_lookups_shortlat: 3.33888 %
bb_found_hist: 0 701183 363542 190279 82794 27828 15696 1620 9411 601 2010 657 0 0 0 19 0 0 0 0 0 0 0 0 0 0 0 0 0 0 0 0 0 0 0 0 0 0 0 0 0 0 0 0 0 0 0 0 0 0 0 0 0 0 0 0 0 0 0 0 0 0 0 0 
bb_found_summary: 2683245 1395640 1.92259
entangled_found_hist: 0 306895 291722 736178 108978 15186 16957 0 
entangled_found_summary: 3712457 1475916 2.51536
bb_ent_found_hist: 0 1326246 648991 409550 146426 98971 43860 7439 10118 1842 6306 1916 0 0 0 54 0 0 0 0 0 0 0 0 0 0 0 0 0 0 0 0 0 0 0 0 0 0 0 0 0 0 0 0 0 0 0 0 0 0 0 0 0 0 0 0 0 0 0 0 0 0 0 0 
bb_ent_found_summary: 5431138 2701719 2.01025

DRAM Statistics
 CHANNEL 0
 RQ ROW_BUFFER_HIT:       9378  ROW_BUFFER_MISS:      13872
 DBUS AVG_CONGESTED_CYCLE:    3.94199
 WQ ROW_BUFFER_HIT:       1862  ROW_BUFFER_MISS:      11806  FULL:          0


CPU 0 Branch Prediction Accuracy: 96.0444% MPKI: 7.48676 Average ROB Occupancy at Mispredict: 165.281
Branch type MPKI
BRANCH_DIRECT_JUMP: 0.05004
BRANCH_INDIRECT: 0.66856
BRANCH_CONDITIONAL: 6.25044
BRANCH_DIRECT_CALL: 0.09008
BRANCH_INDIRECT_CALL: 0.37956
BRANCH_RETURN: 0.04808

