
*** ChampSim Multicore Out-of-Order Simulator ***

Warmup Instructions: 25000000
Simulation Instructions: 25000000
Number of CPUs: 1
Off-chip DRAM Size: 4 GiB Channels: 1 Width: 64-bit Data Rate: 3200 MT/s

VirtualMemory physical capacity: 8588881920 num_ppages: 2096895
VirtualMemory page size: 4096 log2_page_size: 12

CPU 0 runs ipc1_public/client_003.champsimtrace.xz
Basic BTB sets: 1024 ways: 8 indirect buffer size: 4096 RAS size: 64
cpu0_STLB arbitrary stride prefetcher
cpu0_L1D next line prefetcher
WARNING: The extended signature CACHE::prefetch_line(ip, base_addr, pf_addr, fill_this_level, prefetch_metadata) is deprecated.
WARNING: Use CACHE::prefetch_line(pf_addr, fill_this_level, prefetch_metadata) instead.
Heartbeat CPU 0 instructions: 10000002 cycles: 2507317 heartbeat IPC: 3.98833 cumulative IPC: 3.98833 (Simulation time: 0 hr 0 min 22 sec) 
Heartbeat CPU 0 instructions: 20000001 cycles: 5023177 heartbeat IPC: 3.97478 cumulative IPC: 3.98154 (Simulation time: 0 hr 0 min 44 sec) 

Warmup complete CPU 0 instructions: 25000003 cycles: 6274587 (Simulation time: 0 hr 0 min 56 sec) 

Heartbeat CPU 0 instructions: 30000003 cycles: 9837085 heartbeat IPC: 2.07731 cumulative IPC: 1.40351 (Simulation time: 0 hr 1 min 13 sec) 
Heartbeat CPU 0 instructions: 40000000 cycles: 16552524 heartbeat IPC: 1.48911 cumulative IPC: 1.45944 (Simulation time: 0 hr 1 min 50 sec) 
Heartbeat CPU 0 instructions: 50000004 cycles: 22763726 heartbeat IPC: 1.61 cumulative IPC: 1.51615 (Simulation time: 0 hr 2 min 25 sec) 
Finished CPU 0 instructions: 25000001 cycles: 16489139 cumulative IPC: 1.51615 (Simulation time: 0 hr 2 min 25 sec) 

ChampSim completed all CPUs

Region of Interest Statistics

CPU 0 cumulative IPC: 1.51615 instructions: 25000001 cycles: 16489139
cpu0_DTLB TOTAL     ACCESS:    5037895  HIT:    4984605  MISS:      53290
cpu0_DTLB LOAD      ACCESS:    2866079  HIT:    2818283  MISS:      47796
cpu0_DTLB RFO       ACCESS:    2171816  HIT:    2166322  MISS:       5494
cpu0_DTLB PREFETCH  ACCESS:          0  HIT:          0  MISS:          0
cpu0_DTLB WRITEBACK ACCESS:          0  HIT:          0  MISS:          0
cpu0_DTLB TRANSLATION ACCESS:          0  HIT:          0  MISS:          0
cpu0_DTLB PREFETCH  REQUESTED:          0  ISSUED:          0  USEFUL:          0  USELESS:          0
cpu0_DTLB AVERAGE MISS LATENCY: 10.2353 cycles
cpu0_ITLB TOTAL     ACCESS:    1732117  HIT:    1704061  MISS:      28056
cpu0_ITLB LOAD      ACCESS:    1732117  HIT:    1704061  MISS:      28056
cpu0_ITLB RFO       ACCESS:          0  HIT:          0  MISS:          0
cpu0_ITLB PREFETCH  ACCESS:          0  HIT:          0  MISS:          0
cpu0_ITLB WRITEBACK ACCESS:          0  HIT:          0  MISS:          0
cpu0_ITLB TRANSLATION ACCESS:          0  HIT:          0  MISS:          0
cpu0_ITLB PREFETCH  REQUESTED:          0  ISSUED:          0  USEFUL:          0  USELESS:          0
cpu0_ITLB AVERAGE MISS LATENCY: 9.36702 cycles
cpu0_L1I TOTAL     ACCESS:    2736351  HIT:    2534293  MISS:     202058
cpu0_L1I LOAD      ACCESS:    2736351  HIT:    2534293  MISS:     202058
cpu0_L1I RFO       ACCESS:          0  HIT:          0  MISS:          0
cpu0_L1I PREFETCH  ACCESS:          0  HIT:          0  MISS:          0
cpu0_L1I WRITEBACK ACCESS:          0  HIT:          0  MISS:          0
cpu0_L1I TRANSLATION ACCESS:          0  HIT:          0  MISS:          0
cpu0_L1I PREFETCH  REQUESTED:          0  ISSUED:          0  USEFUL:          0  USELESS:          0
cpu0_L1I AVERAGE MISS LATENCY: 21.9969 cycles
cpu0_STLB TOTAL     ACCESS:      81346  HIT:      80559  MISS:        787
cpu0_STLB LOAD      ACCESS:      75852  HIT:      75429  MISS:        423
cpu0_STLB RFO       ACCESS:       5494  HIT:       5130  MISS:        364
cpu0_STLB PREFETCH  ACCESS:          0  HIT:          0  MISS:          0
cpu0_STLB WRITEBACK ACCESS:          0  HIT:          0  MISS:          0
cpu0_STLB TRANSLATION ACCESS:          0  HIT:          0  MISS:          0
cpu0_STLB PREFETCH  REQUESTED:         70  ISSUED:         21  USEFUL:          0  USELESS:          0
cpu0_STLB AVERAGE MISS LATENCY: 95.6696 cycles
cpu0_L1D TOTAL     ACCESS:   10131799  HIT:    9917097  MISS:     214702
cpu0_L1D LOAD      ACCESS:    3237066  HIT:    3173470  MISS:      63596
cpu0_L1D RFO       ACCESS:    3696940  HIT:    3616594  MISS:      80346
cpu0_L1D PREFETCH  ACCESS:    3197008  HIT:    3126706  MISS:      70302
cpu0_L1D WRITEBACK ACCESS:          0  HIT:          0  MISS:          0
cpu0_L1D TRANSLATION ACCESS:        785  HIT:        327  MISS:        458
cpu0_L1D PREFETCH  REQUESTED:    3244759  ISSUED:    3226073  USEFUL:      52120  USELESS:      21979
cpu0_L1D AVERAGE MISS LATENCY: 54.2328 cycles
cpu0_L2C TOTAL     ACCESS:     523138  HIT:     380145  MISS:     142993
cpu0_L2C LOAD      ACCESS:     263140  HIT:     212844  MISS:      50296
cpu0_L2C RFO       ACCESS:      79031  HIT:      17123  MISS:      61908
cpu0_L2C PREFETCH  ACCESS:      74117  HIT:      44108  MISS:      30009
cpu0_L2C WRITEBACK ACCESS:     106392  HIT:     105696  MISS:        696
cpu0_L2C TRANSLATION ACCESS:        458  HIT:        374  MISS:         84
cpu0_L2C PREFETCH  REQUESTED:          0  ISSUED:          0  USEFUL:          0  USELESS:          0
cpu0_L2C AVERAGE MISS LATENCY: 82.7396 cycles
LLC TOTAL     ACCESS:     224941  HIT:     176139  MISS:      48802
LLC LOAD      ACCESS:      50295  HIT:      38350  MISS:      11945
LLC RFO       ACCESS:      61907  HIT:      33306  MISS:      28601
LLC PREFETCH  ACCESS:      30008  HIT:      21969  MISS:       8039
LLC WRITEBACK ACCESS:      82647  HIT:      82445  MISS:        202
LLC TRANSLATION ACCESS:         84  HIT:         69  MISS:         15
LLC PREFETCH  REQUESTED:          0  ISSUED:          0  USEFUL:          0  USELESS:          0
LLC AVERAGE MISS LATENCY: 181.197 cycles

DRAM Statistics
 CHANNEL 0
 RQ ROW_BUFFER_HIT:      16844  ROW_BUFFER_MISS:      31740
 DBUS AVG_CONGESTED_CYCLE:     3.9224
 WQ ROW_BUFFER_HIT:       5023  ROW_BUFFER_MISS:      28728  FULL:          0


CPU 0 Branch Prediction Accuracy: 96.1104% MPKI: 7.07976 Average ROB Occupancy at Mispredict: 171.855
Branch type MPKI
BRANCH_DIRECT_JUMP: 0.03796
BRANCH_INDIRECT: 0.72836
BRANCH_CONDITIONAL: 5.65404
BRANCH_DIRECT_CALL: 0.07904
BRANCH_INDIRECT_CALL: 0.38616
BRANCH_RETURN: 0.1942

