
*** ChampSim Multicore Out-of-Order Simulator ***

Warmup Instructions: 25000000
Simulation Instructions: 25000000
Number of CPUs: 1
Off-chip DRAM Size: 4 GiB Channels: 1 Width: 64-bit Data Rate: 3200 MT/s

VirtualMemory physical capacity: 8588881920 num_ppages: 2096895
VirtualMemory page size: 4096 log2_page_size: 12

CPU 0 runs ipc1_public/client_004.champsimtrace.xz
Basic BTB sets: 1024 ways: 8 indirect buffer size: 4096 RAS size: 64
CPU 0 next line instruction prefetcher
cpu0_L1D next line prefetcher
WARNING: The extended signature CACHE::prefetch_line(ip, base_addr, pf_addr, fill_this_level, prefetch_metadata) is deprecated.
WARNING: Use CACHE::prefetch_line(pf_addr, fill_this_level, prefetch_metadata) instead.
Heartbeat CPU 0 instructions: 10000000 cycles: 2755806 heartbeat IPC: 3.6287 cumulative IPC: 3.6287 (Simulation time: 0 hr 0 min 25 sec) 
Heartbeat CPU 0 instructions: 20000003 cycles: 5381068 heartbeat IPC: 3.80914 cumulative IPC: 3.71673 (Simulation time: 0 hr 0 min 49 sec) 

Warmup complete CPU 0 instructions: 25000001 cycles: 6795499 (Simulation time: 0 hr 1 min 2 sec) 

Heartbeat CPU 0 instructions: 30000004 cycles: 10773668 heartbeat IPC: 1.85439 cumulative IPC: 1.25686 (Simulation time: 0 hr 1 min 19 sec) 
Heartbeat CPU 0 instructions: 40000004 cycles: 19370651 heartbeat IPC: 1.1632 cumulative IPC: 1.19283 (Simulation time: 0 hr 1 min 53 sec) 
Heartbeat CPU 0 instructions: 50000004 cycles: 26706044 heartbeat IPC: 1.36325 cumulative IPC: 1.25562 (Simulation time: 0 hr 2 min 29 sec) 
Finished CPU 0 instructions: 25000003 cycles: 19910545 cumulative IPC: 1.25562 (Simulation time: 0 hr 2 min 29 sec) 

ChampSim completed all CPUs

Region of Interest Statistics

CPU 0 cumulative IPC: 1.25562 instructions: 25000003 cycles: 19910545
cpu0_DTLB TOTAL     ACCESS:    5583839  HIT:    5459788  MISS:     124051
cpu0_DTLB LOAD      ACCESS:    3964321  HIT:    3848388  MISS:     115933
cpu0_DTLB RFO       ACCESS:    1619518  HIT:    1611400  MISS:       8118
cpu0_DTLB PREFETCH  ACCESS:          0  HIT:          0  MISS:          0
cpu0_DTLB WRITEBACK ACCESS:          0  HIT:          0  MISS:          0
cpu0_DTLB TRANSLATION ACCESS:          0  HIT:          0  MISS:          0
cpu0_DTLB PREFETCH  REQUESTED:          0  ISSUED:          0  USEFUL:          0  USELESS:          0
cpu0_DTLB AVERAGE MISS LATENCY: 10.3597 cycles
cpu0_ITLB TOTAL     ACCESS:    1982131  HIT:    1928699  MISS:      53432
cpu0_ITLB LOAD      ACCESS:    1982131  HIT:    1928699  MISS:      53432
cpu0_ITLB RFO       ACCESS:          0  HIT:          0  MISS:          0
cpu0_ITLB PREFETCH  ACCESS:          0  HIT:          0  MISS:          0
cpu0_ITLB WRITEBACK ACCESS:          0  HIT:          0  MISS:          0
cpu0_ITLB TRANSLATION ACCESS:          0  HIT:          0  MISS:          0
cpu0_ITLB PREFETCH  REQUESTED:          0  ISSUED:          0  USEFUL:          0  USELESS:          0
cpu0_ITLB AVERAGE MISS LATENCY: 10.4348 cycles
cpu0_L1I TOTAL     ACCESS:    4990759  HIT:    4519457  MISS:     471302
cpu0_L1I LOAD      ACCESS:    2581162  HIT:    2300355  MISS:     280807
cpu0_L1I RFO       ACCESS:          0  HIT:          0  MISS:          0
cpu0_L1I PREFETCH  ACCESS:    2409597  HIT:    2219102  MISS:     190495
cpu0_L1I WRITEBACK ACCESS:          0  HIT:          0  MISS:          0
cpu0_L1I TRANSLATION ACCESS:          0  HIT:          0  MISS:          0
cpu0_L1I PREFETCH  REQUESTED:    2593269  ISSUED:    2593136  USEFUL:     159973  USELESS:      55728
cpu0_L1I AVERAGE MISS LATENCY: 21.3189 cycles
cpu0_STLB TOTAL     ACCESS:     177483  HIT:     171869  MISS:       5614
cpu0_STLB LOAD      ACCESS:     169365  HIT:     164131  MISS:       5234
cpu0_STLB RFO       ACCESS:       8118  HIT:       7738  MISS:        380
cpu0_STLB PREFETCH  ACCESS:          0  HIT:          0  MISS:          0
cpu0_STLB WRITEBACK ACCESS:          0  HIT:          0  MISS:          0
cpu0_STLB TRANSLATION ACCESS:          0  HIT:          0  MISS:          0
cpu0_STLB PREFETCH  REQUESTED:          0  ISSUED:          0  USEFUL:          0  USELESS:          0
cpu0_STLB AVERAGE MISS LATENCY: 43.1772 cycles
cpu0_L1D TOTAL     ACCESS:   10768660  HIT:   10350473  MISS:     418187
cpu0_L1D LOAD      ACCESS:    4209461  HIT:    4019268  MISS:     190193
cpu0_L1D RFO       ACCESS:    2447165  HIT:    2398159  MISS:      49006
cpu0_L1D PREFETCH  ACCESS:    4106484  HIT:    3928639  MISS:     177845
cpu0_L1D WRITEBACK ACCESS:          0  HIT:          0  MISS:          0
cpu0_L1D TRANSLATION ACCESS:       5550  HIT:       4407  MISS:       1143
cpu0_L1D PREFETCH  REQUESTED:    4223099  ISSUED:    4176465  USEFUL:     138330  USELESS:      47773
cpu0_L1D AVERAGE MISS LATENCY: 36.2452 cycles
cpu0_L2C TOTAL     ACCESS:     994691  HIT:     777197  MISS:     217494
cpu0_L2C LOAD      ACCESS:     438842  HIT:     353388  MISS:      85454
cpu0_L2C RFO       ACCESS:      47673  HIT:      22999  MISS:      24674
cpu0_L2C PREFETCH  ACCESS:     401696  HIT:     295015  MISS:     106681
cpu0_L2C WRITEBACK ACCESS:     105337  HIT:     104901  MISS:        436
cpu0_L2C TRANSLATION ACCESS:       1143  HIT:        894  MISS:        249
cpu0_L2C PREFETCH  REQUESTED:          0  ISSUED:          0  USEFUL:          0  USELESS:          0
cpu0_L2C AVERAGE MISS LATENCY: 80.3052 cycles
LLC TOTAL     ACCESS:     256538  HIT:     191515  MISS:      65023
LLC LOAD      ACCESS:      85453  HIT:      65937  MISS:      19516
LLC RFO       ACCESS:      24674  HIT:      10205  MISS:      14469
LLC PREFETCH  ACCESS:     106681  HIT:      75699  MISS:      30982
LLC WRITEBACK ACCESS:      39481  HIT:      39451  MISS:         30
LLC TRANSLATION ACCESS:        249  HIT:        223  MISS:         26
LLC PREFETCH  REQUESTED:          0  ISSUED:          0  USEFUL:          0  USELESS:          0
LLC AVERAGE MISS LATENCY: 198.505 cycles

DRAM Statistics
 CHANNEL 0
 RQ ROW_BUFFER_HIT:      11505  ROW_BUFFER_MISS:      53483
 DBUS AVG_CONGESTED_CYCLE:    3.74685
 WQ ROW_BUFFER_HIT:       3936  ROW_BUFFER_MISS:      15144  FULL:          0


CPU 0 Branch Prediction Accuracy: 91.0499% MPKI: 16.0574 Average ROB Occupancy at Mispredict: 120.981
Branch type MPKI
BRANCH_DIRECT_JUMP: 0.33756
BRANCH_INDIRECT: 3.23968
BRANCH_CONDITIONAL: 9.1052
BRANCH_DIRECT_CALL: 0.54464
BRANCH_INDIRECT_CALL: 1.66768
BRANCH_RETURN: 1.16264

