
*** ChampSim Multicore Out-of-Order Simulator ***

Warmup Instructions: 25000000
Simulation Instructions: 25000000
Number of CPUs: 1
Off-chip DRAM Size: 4 GiB Channels: 1 Width: 64-bit Data Rate: 3200 MT/s

VirtualMemory physical capacity: 8588881920 num_ppages: 2096895
VirtualMemory page size: 4096 log2_page_size: 12

CPU 0 runs ipc1_public/client_005.champsimtrace.xz
Basic BTB sets: 1024 ways: 8 indirect buffer size: 4096 RAS size: 64
cpu0_L1D next line prefetcher
WARNING: The extended signature CACHE::prefetch_line(ip, base_addr, pf_addr, fill_this_level, prefetch_metadata) is deprecated.
WARNING: Use CACHE::prefetch_line(pf_addr, fill_this_level, prefetch_metadata) instead.
Heartbeat CPU 0 instructions: 10000003 cycles: 2533381 heartbeat IPC: 3.9473 cumulative IPC: 3.9473 (Simulation time: 0 hr 0 min 21 sec) 
Heartbeat CPU 0 instructions: 20000003 cycles: 5047802 heartbeat IPC: 3.97706 cumulative IPC: 3.96212 (Simulation time: 0 hr 0 min 42 sec) 

Warmup complete CPU 0 instructions: 25000001 cycles: 6298058 (Simulation time: 0 hr 0 min 53 sec) 

Heartbeat CPU 0 instructions: 30000002 cycles: 9901644 heartbeat IPC: 2.06022 cumulative IPC: 1.38751 (Simulation time: 0 hr 1 min 12 sec) 
Heartbeat CPU 0 instructions: 40000000 cycles: 17332623 heartbeat IPC: 1.34572 cumulative IPC: 1.35936 (Simulation time: 0 hr 1 min 49 sec) 
Heartbeat CPU 0 instructions: 50000001 cycles: 27174704 heartbeat IPC: 1.01605 cumulative IPC: 1.19751 (Simulation time: 0 hr 2 min 31 sec) 
Finished CPU 0 instructions: 25000000 cycles: 20876646 cumulative IPC: 1.19751 (Simulation time: 0 hr 2 min 31 sec) 

ChampSim completed all CPUs

Region of Interest Statistics

CPU 0 cumulative IPC: 1.19751 instructions: 25000000 cycles: 20876646
cpu0_DTLB TOTAL     ACCESS:    4927299  HIT:    4857885  MISS:      69414
cpu0_DTLB LOAD      ACCESS:    2757741  HIT:    2698209  MISS:      59532
cpu0_DTLB RFO       ACCESS:    2169558  HIT:    2159676  MISS:       9882
cpu0_DTLB PREFETCH  ACCESS:          0  HIT:          0  MISS:          0
cpu0_DTLB WRITEBACK ACCESS:          0  HIT:          0  MISS:          0
cpu0_DTLB TRANSLATION ACCESS:          0  HIT:          0  MISS:          0
cpu0_DTLB PREFETCH  REQUESTED:          0  ISSUED:          0  USEFUL:          0  USELESS:          0
cpu0_DTLB AVERAGE MISS LATENCY: 14.547 cycles
cpu0_ITLB TOTAL     ACCESS:    1746947  HIT:    1711779  MISS:      35168
cpu0_ITLB LOAD      ACCESS:    1746947  HIT:    1711779  MISS:      35168
cpu0_ITLB RFO       ACCESS:          0  HIT:          0  MISS:          0
cpu0_ITLB PREFETCH  ACCESS:          0  HIT:          0  MISS:          0
cpu0_ITLB WRITEBACK ACCESS:          0  HIT:          0  MISS:          0
cpu0_ITLB TRANSLATION ACCESS:          0  HIT:          0  MISS:          0
cpu0_ITLB PREFETCH  REQUESTED:          0  ISSUED:          0  USEFUL:          0  USELESS:          0
cpu0_ITLB AVERAGE MISS LATENCY: 9.18793 cycles
cpu0_L1I TOTAL     ACCESS:    3224066  HIT:    3000155  MISS:     223911
cpu0_L1I LOAD      ACCESS:    3224066  HIT:    3000155  MISS:     223911
cpu0_L1I RFO       ACCESS:          0  HIT:          0  MISS:          0
cpu0_L1I PREFETCH  ACCESS:          0  HIT:          0  MISS:          0
cpu0_L1I WRITEBACK ACCESS:          0  HIT:          0  MISS:          0
cpu0_L1I TRANSLATION ACCESS:          0  HIT:          0  MISS:          0
cpu0_L1I PREFETCH  REQUESTED:          0  ISSUED:          0  USEFUL:          0  USELESS:          0
cpu0_L1I AVERAGE MISS LATENCY: 17.9075 cycles
cpu0_STLB TOTAL     ACCESS:     104582  HIT:     100820  MISS:       3762
cpu0_STLB LOAD      ACCESS:      94700  HIT:      92517  MISS:       2183
cpu0_STLB RFO       ACCESS:       9882  HIT:       8303  MISS:       1579
cpu0_STLB PREFETCH  ACCESS:          0  HIT:          0  MISS:          0
cpu0_STLB WRITEBACK ACCESS:          0  HIT:          0  MISS:          0
cpu0_STLB TRANSLATION ACCESS:          0  HIT:          0  MISS:          0
cpu0_STLB PREFETCH  REQUESTED:          0  ISSUED:          0  USEFUL:          0  USELESS:          0
cpu0_STLB AVERAGE MISS LATENCY: 103.767 cycles
cpu0_L1D TOTAL     ACCESS:    9672788  HIT:    9397218  MISS:     275570
cpu0_L1D LOAD      ACCESS:    3084934  HIT:    3002221  MISS:      82713
cpu0_L1D RFO       ACCESS:    3555120  HIT:    3446830  MISS:     108290
cpu0_L1D PREFETCH  ACCESS:    3029070  HIT:    2945438  MISS:      83632
cpu0_L1D WRITEBACK ACCESS:          0  HIT:          0  MISS:          0
cpu0_L1D TRANSLATION ACCESS:       3664  HIT:       2729  MISS:        935
cpu0_L1D PREFETCH  REQUESTED:    3101853  ISSUED:    3082742  USEFUL:      65866  USELESS:      27099
cpu0_L1D AVERAGE MISS LATENCY: 153.787 cycles
cpu0_L2C TOTAL     ACCESS:     645013  HIT:     445910  MISS:     199103
cpu0_L2C LOAD      ACCESS:     300002  HIT:     246791  MISS:      53211
cpu0_L2C RFO       ACCESS:     105576  HIT:      13153  MISS:      92423
cpu0_L2C PREFETCH  ACCESS:      92950  HIT:      40180  MISS:      52770
cpu0_L2C WRITEBACK ACCESS:     145550  HIT:     145018  MISS:        532
cpu0_L2C TRANSLATION ACCESS:        935  HIT:        768  MISS:        167
cpu0_L2C PREFETCH  REQUESTED:          0  ISSUED:          0  USEFUL:          0  USELESS:          0
cpu0_L2C AVERAGE MISS LATENCY: 212.278 cycles
LLC TOTAL     ACCESS:     320480  HIT:     155939  MISS:     164541
LLC LOAD      ACCESS:      53211  HIT:      17746  MISS:      35465
LLC RFO       ACCESS:      92423  HIT:       2642  MISS:      89781
LLC PREFETCH  ACCESS:      52770  HIT:      14110  MISS:      38660
LLC WRITEBACK ACCESS:     121909  HIT:     121331  MISS:        578
LLC TRANSLATION ACCESS:        167  HIT:        110  MISS:         57
LLC PREFETCH  REQUESTED:          0  ISSUED:          0  USEFUL:          0  USELESS:          0
LLC AVERAGE MISS LATENCY: 231.524 cycles

DRAM Statistics
 CHANNEL 0
 RQ ROW_BUFFER_HIT:      51952  ROW_BUFFER_MISS:     111985
 DBUS AVG_CONGESTED_CYCLE:    3.94109
 WQ ROW_BUFFER_HIT:      16348  ROW_BUFFER_MISS:     112622  FULL:          0


CPU 0 Branch Prediction Accuracy: 95.7904% MPKI: 7.73784 Average ROB Occupancy at Mispredict: 174.208
Branch type MPKI
BRANCH_DIRECT_JUMP: 0.01288
BRANCH_INDIRECT: 0.57212
BRANCH_CONDITIONAL: 6.22528
BRANCH_DIRECT_CALL: 0.03524
BRANCH_INDIRECT_CALL: 0.41896
BRANCH_RETURN: 0.47336

