WARNING: physical memory size is smaller than virtual memory size.
WARNING: option --warmup_instructions is deprecated. Use --warmup-instructions instead.
WARNING: option --simulation_instructions is deprecated. Use --simulation-instructions instead.

*** ChampSim Multicore Out-of-Order Simulator ***
Warmup Instructions: 25000000
Simulation Instructions: 25000000
Number of CPUs: 1
Page size: 4096

Off-chip DRAM Size: 4 GiB Channels: 1 Width: 64-bit Data Race: 3200 MT/s
Heartbeat CPU 0 instructions: 10000000 cycles: 2509004 heartbeat IPC: 3.986 cumulative IPC: 3.986 (Simulation time: 00 hr 00 min 21 sec)
Heartbeat CPU 0 instructions: 20000001 cycles: 5016457 heartbeat IPC: 3.988 cumulative IPC: 3.987 (Simulation time: 00 hr 00 min 43 sec)
Warmup finished CPU 0 instructions: 25000002 cycles: 6267398 cumulative IPC: 3.989 (Simulation time: 00 hr 00 min 54 sec)
Warmup complete CPU 0 instructions: 25000002 cycles: 6267398 cumulative IPC: 3.989 (Simulation time: 00 hr 00 min 54 sec)
Heartbeat CPU 0 instructions: 30000003 cycles: 9100318 heartbeat IPC: 2.449 cumulative IPC: 1.765 (Simulation time: 00 hr 01 min 14 sec)
Heartbeat CPU 0 instructions: 40000004 cycles: 15010914 heartbeat IPC: 1.692 cumulative IPC: 1.716 (Simulation time: 00 hr 01 min 54 sec)
Heartbeat CPU 0 instructions: 50000000 cycles: 22251193 heartbeat IPC: 1.381 cumulative IPC: 1.564 (Simulation time: 00 hr 02 min 38 sec)
Simulation finished CPU 0 instructions: 25000000 cycles: 15983797 cumulative IPC: 1.564 (Simulation time: 00 hr 02 min 38 sec)
Simulation complete CPU 0 instructions: 25000000 cycles: 15983797 cumulative IPC: 1.564 (Simulation time: 00 hr 02 min 38 sec)

ChampSim completed all CPUs

=== Simulation ===
CPU 0 runs ipc1_public/client_005.champsimtrace.xz
Region of Interest Statistics

CPU 0 cumulative IPC: 1.564 instructions: 25000000 cycles: 15983797
CPU 0 Branch Prediction Accuracy: 97.68% MPKI: 4.255 Average ROB Occupancy at Mispredict: 124.1
Branch type MPKI
BRANCH_DIRECT_JUMP: 0.0157
BRANCH_INDIRECT: 0.572
BRANCH_CONDITIONAL: 2.71
BRANCH_DIRECT_CALL: 0.0444
BRANCH_INDIRECT_CALL: 0.42
BRANCH_RETURN: 0.49

LLC TOTAL        ACCESS:     315726 HIT:     152466 MISS:     163260
LLC LOAD         ACCESS:      57071 HIT:      19406 MISS:      37665
LLC RFO          ACCESS:      92980 HIT:       2151 MISS:      90829
LLC PREFETCH     ACCESS:      43659 HIT:      10791 MISS:      32868
LLC WRITE        ACCESS:     120420 HIT:     119884 MISS:        536
LLC TRANSLATION  ACCESS:       1596 HIT:        234 MISS:       1362
LLC PREFETCH REQUESTED:          0 ISSUED:          0 USEFUL:          0 USELESS:          0
LLC AVERAGE MISS LATENCY: 510.3 cycles
cpu0_DTLB TOTAL        ACCESS:    5390207 HIT:    5279901 MISS:     110306
cpu0_DTLB LOAD         ACCESS:    5390207 HIT:    5279901 MISS:     110306
cpu0_DTLB RFO          ACCESS:          0 HIT:          0 MISS:          0
cpu0_DTLB PREFETCH     ACCESS:          0 HIT:          0 MISS:          0
cpu0_DTLB WRITE        ACCESS:          0 HIT:          0 MISS:          0
cpu0_DTLB TRANSLATION  ACCESS:          0 HIT:          0 MISS:          0
cpu0_DTLB PREFETCH REQUESTED:          0 ISSUED:          0 USEFUL:          0 USELESS:          0
cpu0_DTLB AVERAGE MISS LATENCY: 12.33 cycles
cpu0_ITLB TOTAL        ACCESS:    2034837 HIT:    1940175 MISS:      94662
cpu0_ITLB LOAD         ACCESS:    2034837 HIT:    1940175 MISS:      94662
cpu0_ITLB RFO          ACCESS:          0 HIT:          0 MISS:          0
cpu0_ITLB PREFETCH     ACCESS:          0 HIT:          0 MISS:          0
cpu0_ITLB WRITE        ACCESS:          0 HIT:          0 MISS:          0
cpu0_ITLB TRANSLATION  ACCESS:          0 HIT:          0 MISS:          0
cpu0_ITLB PREFETCH REQUESTED:          0 ISSUED:          0 USEFUL:          0 USELESS:          0
cpu0_ITLB AVERAGE MISS LATENCY: 2.885 cycles
cpu0_L1D TOTAL        ACCESS:    9828357 HIT:    9064240 MISS:     764117
cpu0_L1D LOAD         ACCESS:    3519782 HIT:    3343023 MISS:     176759
cpu0_L1D RFO          ACCESS:          0 HIT:          0 MISS:          0
cpu0_L1D PREFETCH     ACCESS:    2468734 HIT:    2287886 MISS:     180848
cpu0_L1D WRITE        ACCESS:    3835859 HIT:    3432682 MISS:     403177
cpu0_L1D TRANSLATION  ACCESS:       3982 HIT:        649 MISS:       3333
cpu0_L1D PREFETCH REQUESTED:    3713214 ISSUED:    2468734 USEFUL:      32304 USELESS:      46662
cpu0_L1D AVERAGE MISS LATENCY: 109.6 cycles
cpu0_L1I TOTAL        ACCESS:    2371987 HIT:    2025695 MISS:     346292
cpu0_L1I LOAD         ACCESS:    2371987 HIT:    2025695 MISS:     346292
cpu0_L1I RFO          ACCESS:          0 HIT:          0 MISS:          0
cpu0_L1I PREFETCH     ACCESS:          0 HIT:          0 MISS:          0
cpu0_L1I WRITE        ACCESS:          0 HIT:          0 MISS:          0
cpu0_L1I TRANSLATION  ACCESS:          0 HIT:          0 MISS:          0
cpu0_L1I PREFETCH REQUESTED:          0 ISSUED:          0 USEFUL:          0 USELESS:          0
cpu0_L1I AVERAGE MISS LATENCY: 10.74 cycles
cpu0_L2C TOTAL        ACCESS:     652763 HIT:     457070 MISS:     195693
cpu0_L2C LOAD         ACCESS:     314890 HIT:     257819 MISS:      57071
cpu0_L2C RFO          ACCESS:     108705 HIT:      15725 MISS:      92980
cpu0_L2C PREFETCH     ACCESS:      78920 HIT:      35261 MISS:      43659
cpu0_L2C WRITE        ACCESS:     146949 HIT:     146562 MISS:        387
cpu0_L2C TRANSLATION  ACCESS:       3299 HIT:       1703 MISS:       1596
cpu0_L2C PREFETCH REQUESTED:          0 ISSUED:          0 USEFUL:          0 USELESS:          0
cpu0_L2C AVERAGE MISS LATENCY: 446.5 cycles
cpu0_STLB TOTAL        ACCESS:     105638 HIT:     101877 MISS:       3761
cpu0_STLB LOAD         ACCESS:     105638 HIT:     101877 MISS:       3761
cpu0_STLB RFO          ACCESS:          0 HIT:          0 MISS:          0
cpu0_STLB PREFETCH     ACCESS:          0 HIT:          0 MISS:          0
cpu0_STLB WRITE        ACCESS:          0 HIT:          0 MISS:          0
cpu0_STLB TRANSLATION  ACCESS:          0 HIT:          0 MISS:          0
cpu0_STLB PREFETCH REQUESTED:          0 ISSUED:          0 USEFUL:          0 USELESS:          0
cpu0_STLB AVERAGE MISS LATENCY: 298.7 cycles

DRAM Statistics

Channel 0 RQ ROW_BUFFER_HIT:      44017
  ROW_BUFFER_MISS:     118686
 AVG DBUS CONGESTED CYCLE: 3.967
WQ ROW_BUFFER_HIT: Channel 0 
  ROW_BUFFER_MISS:      10834
  FULL:     117184
