WARNING: physical memory size is smaller than virtual memory size.
WARNING: option --warmup_instructions is deprecated. Use --warmup-instructions instead.
WARNING: option --simulation_instructions is deprecated. Use --simulation-instructions instead.

*** ChampSim Multicore Out-of-Order Simulator ***
Warmup Instructions: 25000000
Simulation Instructions: 25000000
Number of CPUs: 1
Page size: 4096

Off-chip DRAM Size: 4 GiB Channels: 1 Width: 64-bit Data Race: 3200 MT/s
Heartbeat CPU 0 instructions: 10000000 cycles: 2509785 heartbeat IPC: 3.984 cumulative IPC: 3.984 (Simulation time: 00 hr 00 min 22 sec)
Heartbeat CPU 0 instructions: 20000001 cycles: 5017562 heartbeat IPC: 3.988 cumulative IPC: 3.986 (Simulation time: 00 hr 00 min 44 sec)
Warmup finished CPU 0 instructions: 25000000 cycles: 6268793 cumulative IPC: 3.988 (Simulation time: 00 hr 00 min 55 sec)
Warmup complete CPU 0 instructions: 25000000 cycles: 6268793 cumulative IPC: 3.988 (Simulation time: 00 hr 00 min 55 sec)
Heartbeat CPU 0 instructions: 30000003 cycles: 9089864 heartbeat IPC: 2.456 cumulative IPC: 1.772 (Simulation time: 00 hr 01 min 15 sec)
Heartbeat CPU 0 instructions: 40000004 cycles: 14946394 heartbeat IPC: 1.707 cumulative IPC: 1.729 (Simulation time: 00 hr 01 min 56 sec)
Heartbeat CPU 0 instructions: 50000000 cycles: 22059315 heartbeat IPC: 1.406 cumulative IPC: 1.583 (Simulation time: 00 hr 02 min 40 sec)
Simulation finished CPU 0 instructions: 25000000 cycles: 15790523 cumulative IPC: 1.583 (Simulation time: 00 hr 02 min 40 sec)
Simulation complete CPU 0 instructions: 25000000 cycles: 15790523 cumulative IPC: 1.583 (Simulation time: 00 hr 02 min 40 sec)

ChampSim completed all CPUs

=== Simulation ===
CPU 0 runs ipc1_public/client_005.champsimtrace.xz
Region of Interest Statistics

CPU 0 cumulative IPC: 1.583 instructions: 25000000 cycles: 15790523
CPU 0 Branch Prediction Accuracy: 97.68% MPKI: 4.255 Average ROB Occupancy at Mispredict: 124.9
Branch type MPKI
BRANCH_DIRECT_JUMP: 0.0157
BRANCH_INDIRECT: 0.572
BRANCH_CONDITIONAL: 2.71
BRANCH_DIRECT_CALL: 0.0444
BRANCH_INDIRECT_CALL: 0.42
BRANCH_RETURN: 0.49

LLC TOTAL        ACCESS:     318929 HIT:     154201 MISS:     164728
LLC LOAD         ACCESS:      53185 HIT:      17559 MISS:      35626
LLC RFO          ACCESS:      93137 HIT:       2356 MISS:      90781
LLC PREFETCH     ACCESS:      50469 HIT:      14077 MISS:      36392
LLC WRITE        ACCESS:     120536 HIT:     119972 MISS:        564
LLC TRANSLATION  ACCESS:       1602 HIT:        237 MISS:       1365
LLC PREFETCH REQUESTED:          0 ISSUED:          0 USEFUL:          0 USELESS:          0
LLC AVERAGE MISS LATENCY: 510.4 cycles
cpu0_DTLB TOTAL        ACCESS:    5401729 HIT:    5290980 MISS:     110749
cpu0_DTLB LOAD         ACCESS:    5401729 HIT:    5290980 MISS:     110749
cpu0_DTLB RFO          ACCESS:          0 HIT:          0 MISS:          0
cpu0_DTLB PREFETCH     ACCESS:          0 HIT:          0 MISS:          0
cpu0_DTLB WRITE        ACCESS:          0 HIT:          0 MISS:          0
cpu0_DTLB TRANSLATION  ACCESS:          0 HIT:          0 MISS:          0
cpu0_DTLB PREFETCH REQUESTED:          0 ISSUED:          0 USEFUL:          0 USELESS:          0
cpu0_DTLB AVERAGE MISS LATENCY: 12.8 cycles
cpu0_ITLB TOTAL        ACCESS:    3503411 HIT:    3410699 MISS:      92712
cpu0_ITLB LOAD         ACCESS:    3503411 HIT:    3410699 MISS:      92712
cpu0_ITLB RFO          ACCESS:          0 HIT:          0 MISS:          0
cpu0_ITLB PREFETCH     ACCESS:          0 HIT:          0 MISS:          0
cpu0_ITLB WRITE        ACCESS:          0 HIT:          0 MISS:          0
cpu0_ITLB TRANSLATION  ACCESS:          0 HIT:          0 MISS:          0
cpu0_ITLB PREFETCH REQUESTED:          0 ISSUED:          0 USEFUL:          0 USELESS:          0
cpu0_ITLB AVERAGE MISS LATENCY: 3.31 cycles
cpu0_L1D TOTAL        ACCESS:    9857235 HIT:    9091689 MISS:     765546
cpu0_L1D LOAD         ACCESS:    3531338 HIT:    3353786 MISS:     177552
cpu0_L1D RFO          ACCESS:          0 HIT:          0 MISS:          0
cpu0_L1D PREFETCH     ACCESS:    2485535 HIT:    2303435 MISS:     182100
cpu0_L1D WRITE        ACCESS:    3836381 HIT:    3433816 MISS:     402565
cpu0_L1D TRANSLATION  ACCESS:       3981 HIT:        652 MISS:       3329
cpu0_L1D PREFETCH REQUESTED:    3732511 ISSUED:    2485533 USEFUL:      32403 USELESS:      46878
cpu0_L1D AVERAGE MISS LATENCY: 109.5 cycles
cpu0_L1I TOTAL        ACCESS:    4761273 HIT:    3881473 MISS:     879800
cpu0_L1I LOAD         ACCESS:    2376356 HIT:    1962279 MISS:     414077
cpu0_L1I RFO          ACCESS:          0 HIT:          0 MISS:          0
cpu0_L1I PREFETCH     ACCESS:    2384917 HIT:    1919194 MISS:     465723
cpu0_L1I WRITE        ACCESS:          0 HIT:          0 MISS:          0
cpu0_L1I TRANSLATION  ACCESS:          0 HIT:          0 MISS:          0
cpu0_L1I PREFETCH REQUESTED:    2396626 ISSUED:    2384916 USEFUL:      73556 USELESS:     112686
cpu0_L1I AVERAGE MISS LATENCY: 7.361 cycles
cpu0_L2C TOTAL        ACCESS:     868093 HIT:     669260 MISS:     198833
cpu0_L2C LOAD         ACCESS:     343893 HIT:     290708 MISS:      53185
cpu0_L2C RFO          ACCESS:     108544 HIT:      15407 MISS:      93137
cpu0_L2C PREFETCH     ACCESS:     265459 HIT:     214990 MISS:      50469
cpu0_L2C WRITE        ACCESS:     146898 HIT:     146458 MISS:        440
cpu0_L2C TRANSLATION  ACCESS:       3299 HIT:       1697 MISS:       1602
cpu0_L2C PREFETCH REQUESTED:          0 ISSUED:          0 USEFUL:          0 USELESS:          0
cpu0_L2C AVERAGE MISS LATENCY: 443.7 cycles
cpu0_STLB TOTAL        ACCESS:     107597 HIT:     103839 MISS:       3758
cpu0_STLB LOAD         ACCESS:     107597 HIT:     103839 MISS:       3758
cpu0_STLB RFO          ACCESS:          0 HIT:          0 MISS:          0
cpu0_STLB PREFETCH     ACCESS:          0 HIT:          0 MISS:          0
cpu0_STLB WRITE        ACCESS:          0 HIT:          0 MISS:          0
cpu0_STLB TRANSLATION  ACCESS:          0 HIT:          0 MISS:          0
cpu0_STLB PREFETCH REQUESTED:          0 ISSUED:          0 USEFUL:          0 USELESS:          0
cpu0_STLB AVERAGE MISS LATENCY: 320.7 cycles

DRAM Statistics

Channel 0 RQ ROW_BUFFER_HIT:      44736
  ROW_BUFFER_MISS:     119415
 AVG DBUS CONGESTED CYCLE: 3.966
WQ ROW_BUFFER_HIT: Channel 0 
  ROW_BUFFER_MISS:      10555
  FULL:     117776
