
*** ChampSim Multicore Out-of-Order Simulator ***

Warmup Instructions: 25000000
Simulation Instructions: 25000000
Number of CPUs: 1
Off-chip DRAM Size: 4 GiB Channels: 1 Width: 64-bit Data Rate: 3200 MT/s

VirtualMemory physical capacity: 8588881920 num_ppages: 2096895
VirtualMemory page size: 4096 log2_page_size: 12

CPU 0 runs ipc1_public/client_003.champsimtrace.xz
Basic BTB sets: 1024 ways: 8 indirect buffer size: 4096 RAS size: 64
CPU 0 Entangling prefetcher
cpu0_STLB arbitrary stride prefetcher
cpu0_L1D next line prefetcher
WARNING: The extended signature CACHE::prefetch_line(ip, base_addr, pf_addr, fill_this_level, prefetch_metadata) is deprecated.
WARNING: Use CACHE::prefetch_line(pf_addr, fill_this_level, prefetch_metadata) instead.
Heartbeat CPU 0 instructions: 10000002 cycles: 2505174 heartbeat IPC: 3.99174 cumulative IPC: 3.99174 (Simulation time: 0 hr 0 min 28 sec) 
Heartbeat CPU 0 instructions: 20000001 cycles: 5014457 heartbeat IPC: 3.9852 cumulative IPC: 3.98847 (Simulation time: 0 hr 0 min 57 sec) 

Warmup complete CPU 0 instructions: 25000004 cycles: 6264933 (Simulation time: 0 hr 1 min 13 sec) 

Heartbeat CPU 0 instructions: 30000003 cycles: 9561207 heartbeat IPC: 2.19937 cumulative IPC: 1.51686 (Simulation time: 0 hr 1 min 34 sec) 
Heartbeat CPU 0 instructions: 40000000 cycles: 15950346 heartbeat IPC: 1.56516 cumulative IPC: 1.54872 (Simulation time: 0 hr 2 min 19 sec) 
Heartbeat CPU 0 instructions: 50000004 cycles: 21891797 heartbeat IPC: 1.68309 cumulative IPC: 1.59981 (Simulation time: 0 hr 3 min 2 sec) 
Finished CPU 0 instructions: 25000000 cycles: 15626864 cumulative IPC: 1.59981 (Simulation time: 0 hr 3 min 2 sec) 

ChampSim completed all CPUs

Region of Interest Statistics

CPU 0 cumulative IPC: 1.59981 instructions: 25000000 cycles: 15626864
cpu0_DTLB TOTAL     ACCESS:    5013588  HIT:    4960308  MISS:      53280
cpu0_DTLB LOAD      ACCESS:    2846820  HIT:    2799033  MISS:      47787
cpu0_DTLB RFO       ACCESS:    2166768  HIT:    2161275  MISS:       5493
cpu0_DTLB PREFETCH  ACCESS:          0  HIT:          0  MISS:          0
cpu0_DTLB WRITEBACK ACCESS:          0  HIT:          0  MISS:          0
cpu0_DTLB TRANSLATION ACCESS:          0  HIT:          0  MISS:          0
cpu0_DTLB PREFETCH  REQUESTED:          0  ISSUED:          0  USEFUL:          0  USELESS:          0
cpu0_DTLB AVERAGE MISS LATENCY: 10.2735 cycles
cpu0_ITLB TOTAL     ACCESS:    1732508  HIT:    1704455  MISS:      28053
cpu0_ITLB LOAD      ACCESS:    1732508  HIT:    1704455  MISS:      28053
cpu0_ITLB RFO       ACCESS:          0  HIT:          0  MISS:          0
cpu0_ITLB PREFETCH  ACCESS:          0  HIT:          0  MISS:          0
cpu0_ITLB WRITEBACK ACCESS:          0  HIT:          0  MISS:          0
cpu0_ITLB TRANSLATION ACCESS:          0  HIT:          0  MISS:          0
cpu0_ITLB PREFETCH  REQUESTED:          0  ISSUED:          0  USEFUL:          0  USELESS:          0
cpu0_ITLB AVERAGE MISS LATENCY: 9.41561 cycles
cpu0_L1I TOTAL     ACCESS:   10964192  HIT:   10467978  MISS:     496214
cpu0_L1I LOAD      ACCESS:    2737092  HIT:    2658792  MISS:      78300
cpu0_L1I RFO       ACCESS:          0  HIT:          0  MISS:          0
cpu0_L1I PREFETCH  ACCESS:    8227100  HIT:    7809186  MISS:     417914
cpu0_L1I WRITEBACK ACCESS:          0  HIT:          0  MISS:          0
cpu0_L1I TRANSLATION ACCESS:          0  HIT:          0  MISS:          0
cpu0_L1I PREFETCH  REQUESTED:   15989163  ISSUED:    8259333  USEFUL:     355369  USELESS:      77587
cpu0_L1I AVERAGE MISS LATENCY: 16.8653 cycles
cpu0_STLB TOTAL     ACCESS:      81333  HIT:      80547  MISS:        786
cpu0_STLB LOAD      ACCESS:      75840  HIT:      75418  MISS:        422
cpu0_STLB RFO       ACCESS:       5493  HIT:       5129  MISS:        364
cpu0_STLB PREFETCH  ACCESS:          0  HIT:          0  MISS:          0
cpu0_STLB WRITEBACK ACCESS:          0  HIT:          0  MISS:          0
cpu0_STLB TRANSLATION ACCESS:          0  HIT:          0  MISS:          0
cpu0_STLB PREFETCH  REQUESTED:         70  ISSUED:         21  USEFUL:          0  USELESS:          0
cpu0_STLB AVERAGE MISS LATENCY: 99.9911 cycles
cpu0_L1D TOTAL     ACCESS:   10083118  HIT:    9868503  MISS:     214615
cpu0_L1D LOAD      ACCESS:    3215628  HIT:    3151844  MISS:      63784
cpu0_L1D RFO       ACCESS:    3692116  HIT:    3611699  MISS:      80417
cpu0_L1D PREFETCH  ACCESS:    3174591  HIT:    3104635  MISS:      69956
cpu0_L1D WRITEBACK ACCESS:          0  HIT:          0  MISS:          0
cpu0_L1D TRANSLATION ACCESS:        783  HIT:        325  MISS:        458
cpu0_L1D PREFETCH  REQUESTED:    3223821  ISSUED:    3204979  USEFUL:      51902  USELESS:      22074
cpu0_L1D AVERAGE MISS LATENCY: 57.9046 cycles
cpu0_L2C TOTAL     ACCESS:     817170  HIT:     666511  MISS:     150659
cpu0_L2C LOAD      ACCESS:     124371  HIT:      96709  MISS:      27662
cpu0_L2C RFO       ACCESS:      79041  HIT:      16263  MISS:      62778
cpu0_L2C PREFETCH  ACCESS:     506942  HIT:     447544  MISS:      59398
cpu0_L2C WRITEBACK ACCESS:     106358  HIT:     105615  MISS:        743
cpu0_L2C TRANSLATION ACCESS:        458  HIT:        380  MISS:         78
cpu0_L2C PREFETCH  REQUESTED:          0  ISSUED:          0  USEFUL:          0  USELESS:          0
cpu0_L2C AVERAGE MISS LATENCY: 93.0072 cycles
LLC TOTAL     ACCESS:     233766  HIT:     182252  MISS:      51514
LLC LOAD      ACCESS:      27662  HIT:      21304  MISS:       6358
LLC RFO       ACCESS:      62778  HIT:      33083  MISS:      29695
LLC PREFETCH  ACCESS:      59398  HIT:      44111  MISS:      15287
LLC WRITEBACK ACCESS:      83850  HIT:      83693  MISS:        157
LLC TRANSLATION ACCESS:         78  HIT:         61  MISS:         17
LLC PREFETCH  REQUESTED:          0  ISSUED:          0  USEFUL:          0  USELESS:          0
LLC AVERAGE MISS LATENCY: 210.89 cycles
CPU 0 L1I Entangling prefetcher final stats
IP accesses: a11c 284700 45151 / 2742246
IP misses: 260b 982c0 1592 / 83454
IP hits: 0 0 0 / 0
IP late: 260b 982c0 1126 / 53425
IP wrong: a09c 282700 1845 / 182059
miss rate: 0.0304327
coverage: 0
coverage_late: 0.640173
accuracy: 0
accuracy_late: 0.226873
discarded: 0
evicts entangled j table: 0
evicts entangled k table: 19771
max bb size: 15
formats: 1902 837 14560 4476 3377 7569 0 
hist_lookups: 13397 17412 13896 11158 8685 6175 4003 2708 1828 1255 879 549 305 186 106 0 6 2324 
hist_lookups_evict: 0.00706947 %
hist_lookups_shortlat: 2.73824 %
bb_found_hist: 0 778827 458587 183204 98327 57029 38841 13767 31747 19640 6261 4306 54 23 0 2 0 0 0 0 0 0 0 0 0 0 0 0 0 0 0 0 0 0 0 0 0 0 0 0 0 0 0 0 0 0 0 0 0 0 0 0 0 0 0 0 0 0 0 0 0 0 0 0 
bb_found_summary: 3795170 1690615 2.24485
entangled_found_hist: 0 285502 354905 856176 193446 22357 7746 0 
entangled_found_summary: 4495885 1720132 2.61369
bb_ent_found_hist: 0 1615115 927507 490215 161461 141218 54768 88584 26724 9874 24226 12687 205 56 0 6 0 0 0 0 0 0 0 0 0 0 0 0 0 0 0 0 0 0 0 0 0 0 0 0 0 0 0 0 0 0 0 0 0 0 0 0 0 0 0 0 0 0 0 0 0 0 0 0 
bb_ent_found_summary: 7929157 3552646 2.2319

DRAM Statistics
 CHANNEL 0
 RQ ROW_BUFFER_HIT:      17486  ROW_BUFFER_MISS:      33861
 DBUS AVG_CONGESTED_CYCLE:    3.92926
 WQ ROW_BUFFER_HIT:       4486  ROW_BUFFER_MISS:      31002  FULL:          0


CPU 0 Branch Prediction Accuracy: 96.1104% MPKI: 7.07976 Average ROB Occupancy at Mispredict: 181.548
Branch type MPKI
BRANCH_DIRECT_JUMP: 0.03796
BRANCH_INDIRECT: 0.72836
BRANCH_CONDITIONAL: 5.65404
BRANCH_DIRECT_CALL: 0.07904
BRANCH_INDIRECT_CALL: 0.38616
BRANCH_RETURN: 0.1942

