
*** ChampSim Multicore Out-of-Order Simulator ***

Warmup Instructions: 25000000
Simulation Instructions: 25000000
Number of CPUs: 1
Off-chip DRAM Size: 4 GiB Channels: 1 Width: 64-bit Data Rate: 3200 MT/s

VirtualMemory physical capacity: 8588881920 num_ppages: 2096895
VirtualMemory page size: 4096 log2_page_size: 12

CPU 0 runs ipc1_public/client_004.champsimtrace.xz
Basic BTB sets: 1024 ways: 8 indirect buffer size: 4096 RAS size: 64
cpu0_STLB arbitrary stride prefetcher
cpu0_L1D next line prefetcher
WARNING: The extended signature CACHE::prefetch_line(ip, base_addr, pf_addr, fill_this_level, prefetch_metadata) is deprecated.
WARNING: Use CACHE::prefetch_line(pf_addr, fill_this_level, prefetch_metadata) instead.
Heartbeat CPU 0 instructions: 10000003 cycles: 2755420 heartbeat IPC: 3.62921 cumulative IPC: 3.62921 (Simulation time: 0 hr 0 min 24 sec) 
Heartbeat CPU 0 instructions: 20000003 cycles: 5381736 heartbeat IPC: 3.80762 cumulative IPC: 3.71627 (Simulation time: 0 hr 0 min 47 sec) 

Warmup complete CPU 0 instructions: 25000002 cycles: 6796771 (Simulation time: 0 hr 1 min 0 sec) 

Heartbeat CPU 0 instructions: 30000004 cycles: 11072064 heartbeat IPC: 1.75737 cumulative IPC: 1.16951 (Simulation time: 0 hr 1 min 18 sec) 
Heartbeat CPU 0 instructions: 40000004 cycles: 20705865 heartbeat IPC: 1.03801 cumulative IPC: 1.07843 (Simulation time: 0 hr 1 min 54 sec) 
Heartbeat CPU 0 instructions: 50000004 cycles: 28303643 heartbeat IPC: 1.31617 cumulative IPC: 1.16242 (Simulation time: 0 hr 2 min 32 sec) 
Finished CPU 0 instructions: 25000002 cycles: 21506872 cumulative IPC: 1.16242 (Simulation time: 0 hr 2 min 32 sec) 

ChampSim completed all CPUs

Region of Interest Statistics

CPU 0 cumulative IPC: 1.16242 instructions: 25000002 cycles: 21506872
cpu0_DTLB TOTAL     ACCESS:    5595118  HIT:    5471132  MISS:     123986
cpu0_DTLB LOAD      ACCESS:    3973006  HIT:    3857145  MISS:     115861
cpu0_DTLB RFO       ACCESS:    1622112  HIT:    1613987  MISS:       8125
cpu0_DTLB PREFETCH  ACCESS:          0  HIT:          0  MISS:          0
cpu0_DTLB WRITEBACK ACCESS:          0  HIT:          0  MISS:          0
cpu0_DTLB TRANSLATION ACCESS:          0  HIT:          0  MISS:          0
cpu0_DTLB PREFETCH  REQUESTED:          0  ISSUED:          0  USEFUL:          0  USELESS:          0
cpu0_DTLB AVERAGE MISS LATENCY: 10.3327 cycles
cpu0_ITLB TOTAL     ACCESS:    1983846  HIT:    1930423  MISS:      53423
cpu0_ITLB LOAD      ACCESS:    1983846  HIT:    1930423  MISS:      53423
cpu0_ITLB RFO       ACCESS:          0  HIT:          0  MISS:          0
cpu0_ITLB PREFETCH  ACCESS:          0  HIT:          0  MISS:          0
cpu0_ITLB WRITEBACK ACCESS:          0  HIT:          0  MISS:          0
cpu0_ITLB TRANSLATION ACCESS:          0  HIT:          0  MISS:          0
cpu0_ITLB PREFETCH  REQUESTED:          0  ISSUED:          0  USEFUL:          0  USELESS:          0
cpu0_ITLB AVERAGE MISS LATENCY: 10.4515 cycles
cpu0_L1I TOTAL     ACCESS:    2578756  HIT:    2300932  MISS:     277824
cpu0_L1I LOAD      ACCESS:    2578756  HIT:    2300932  MISS:     277824
cpu0_L1I RFO       ACCESS:          0  HIT:          0  MISS:          0
cpu0_L1I PREFETCH  ACCESS:          0  HIT:          0  MISS:          0
cpu0_L1I WRITEBACK ACCESS:          0  HIT:          0  MISS:          0
cpu0_L1I TRANSLATION ACCESS:          0  HIT:          0  MISS:          0
cpu0_L1I PREFETCH  REQUESTED:          0  ISSUED:          0  USEFUL:          0  USELESS:          0
cpu0_L1I AVERAGE MISS LATENCY: 27.7807 cycles
cpu0_STLB TOTAL     ACCESS:     177409  HIT:     171794  MISS:       5615
cpu0_STLB LOAD      ACCESS:     169284  HIT:     164048  MISS:       5236
cpu0_STLB RFO       ACCESS:       8125  HIT:       7746  MISS:        379
cpu0_STLB PREFETCH  ACCESS:          0  HIT:          0  MISS:          0
cpu0_STLB WRITEBACK ACCESS:          0  HIT:          0  MISS:          0
cpu0_STLB TRANSLATION ACCESS:          0  HIT:          0  MISS:          0
cpu0_STLB PREFETCH  REQUESTED:         20  ISSUED:         11  USEFUL:          0  USELESS:          0
cpu0_STLB AVERAGE MISS LATENCY: 42.7485 cycles
cpu0_L1D TOTAL     ACCESS:   10791261  HIT:   10373106  MISS:     418155
cpu0_L1D LOAD      ACCESS:    4218400  HIT:    4028601  MISS:     189799
cpu0_L1D RFO       ACCESS:    2450277  HIT:    2401344  MISS:      48933
cpu0_L1D PREFETCH  ACCESS:    4117034  HIT:    3938752  MISS:     178282
cpu0_L1D WRITEBACK ACCESS:          0  HIT:          0  MISS:          0
cpu0_L1D TRANSLATION ACCESS:       5550  HIT:       4409  MISS:       1141
cpu0_L1D PREFETCH  REQUESTED:    4231266  ISSUED:    4184910  USEFUL:     138736  USELESS:      47534
cpu0_L1D AVERAGE MISS LATENCY: 34.6725 cycles
cpu0_L2C TOTAL     ACCESS:     801175  HIT:     614816  MISS:     186359
cpu0_L2C LOAD      ACCESS:     460855  HIT:     341580  MISS:     119275
cpu0_L2C RFO       ACCESS:      47674  HIT:      23407  MISS:      24267
cpu0_L2C PREFETCH  ACCESS:     186192  HIT:     143935  MISS:      42257
cpu0_L2C WRITEBACK ACCESS:     105313  HIT:     104942  MISS:        371
cpu0_L2C TRANSLATION ACCESS:       1141  HIT:        952  MISS:        189
cpu0_L2C PREFETCH  REQUESTED:          0  ISSUED:          0  USEFUL:          0  USELESS:          0
cpu0_L2C AVERAGE MISS LATENCY: 80.4225 cycles
LLC TOTAL     ACCESS:     224235  HIT:     167654  MISS:      56581
LLC LOAD      ACCESS:     119275  HIT:      90354  MISS:      28921
LLC RFO       ACCESS:      24267  HIT:      10464  MISS:      13803
LLC PREFETCH  ACCESS:      42257  HIT:      28448  MISS:      13809
LLC WRITEBACK ACCESS:      38247  HIT:      38219  MISS:         28
LLC TRANSLATION ACCESS:        189  HIT:        169  MISS:         20
LLC PREFETCH  REQUESTED:          0  ISSUED:          0  USEFUL:          0  USELESS:          0
LLC AVERAGE MISS LATENCY: 195.852 cycles

DRAM Statistics
 CHANNEL 0
 RQ ROW_BUFFER_HIT:      10180  ROW_BUFFER_MISS:      46369
 DBUS AVG_CONGESTED_CYCLE:    3.80854
 WQ ROW_BUFFER_HIT:       5250  ROW_BUFFER_MISS:      13252  FULL:          0


CPU 0 Branch Prediction Accuracy: 91.0499% MPKI: 16.0574 Average ROB Occupancy at Mispredict: 117.562
Branch type MPKI
BRANCH_DIRECT_JUMP: 0.33756
BRANCH_INDIRECT: 3.23968
BRANCH_CONDITIONAL: 9.1052
BRANCH_DIRECT_CALL: 0.54464
BRANCH_INDIRECT_CALL: 1.66768
BRANCH_RETURN: 1.16264

