
*** ChampSim Multicore Out-of-Order Simulator ***

Warmup Instructions: 25000000
Simulation Instructions: 25000000
Number of CPUs: 1
Off-chip DRAM Size: 4 GiB Channels: 1 Width: 64-bit Data Rate: 3200 MT/s

VirtualMemory physical capacity: 8588881920 num_ppages: 2096895
VirtualMemory page size: 4096 log2_page_size: 12

CPU 0 runs ipc1_public/client_005.champsimtrace.xz
Basic BTB sets: 1024 ways: 8 indirect buffer size: 4096 RAS size: 64
CPU 0 Entangling prefetcher
cpu0_STLB arbitrary stride prefetcher
cpu0_L1D next line prefetcher
WARNING: The extended signature CACHE::prefetch_line(ip, base_addr, pf_addr, fill_this_level, prefetch_metadata) is deprecated.
WARNING: Use CACHE::prefetch_line(pf_addr, fill_this_level, prefetch_metadata) instead.
Heartbeat CPU 0 instructions: 10000002 cycles: 2528885 heartbeat IPC: 3.95431 cumulative IPC: 3.95431 (Simulation time: 0 hr 0 min 23 sec) 
Heartbeat CPU 0 instructions: 20000003 cycles: 5038272 heartbeat IPC: 3.98504 cumulative IPC: 3.96962 (Simulation time: 0 hr 0 min 47 sec) 

Warmup complete CPU 0 instructions: 25000001 cycles: 6288434 (Simulation time: 0 hr 1 min 0 sec) 

Heartbeat CPU 0 instructions: 30000002 cycles: 9833277 heartbeat IPC: 2.0855 cumulative IPC: 1.4105 (Simulation time: 0 hr 1 min 20 sec) 
Heartbeat CPU 0 instructions: 40000000 cycles: 17119496 heartbeat IPC: 1.37245 cumulative IPC: 1.38491 (Simulation time: 0 hr 1 min 59 sec) 
Heartbeat CPU 0 instructions: 50000001 cycles: 26670395 heartbeat IPC: 1.04702 cumulative IPC: 1.22657 (Simulation time: 0 hr 2 min 49 sec) 
Finished CPU 0 instructions: 25000000 cycles: 20381961 cumulative IPC: 1.22657 (Simulation time: 0 hr 2 min 49 sec) 

ChampSim completed all CPUs

Region of Interest Statistics

CPU 0 cumulative IPC: 1.22657 instructions: 25000000 cycles: 20381961
cpu0_DTLB TOTAL     ACCESS:    4903137  HIT:    4833695  MISS:      69442
cpu0_DTLB LOAD      ACCESS:    2737863  HIT:    2678306  MISS:      59557
cpu0_DTLB RFO       ACCESS:    2165274  HIT:    2155389  MISS:       9885
cpu0_DTLB PREFETCH  ACCESS:          0  HIT:          0  MISS:          0
cpu0_DTLB WRITEBACK ACCESS:          0  HIT:          0  MISS:          0
cpu0_DTLB TRANSLATION ACCESS:          0  HIT:          0  MISS:          0
cpu0_DTLB PREFETCH  REQUESTED:          0  ISSUED:          0  USEFUL:          0  USELESS:          0
cpu0_DTLB AVERAGE MISS LATENCY: 14.7068 cycles
cpu0_ITLB TOTAL     ACCESS:    1746107  HIT:    1710937  MISS:      35170
cpu0_ITLB LOAD      ACCESS:    1746107  HIT:    1710937  MISS:      35170
cpu0_ITLB RFO       ACCESS:          0  HIT:          0  MISS:          0
cpu0_ITLB PREFETCH  ACCESS:          0  HIT:          0  MISS:          0
cpu0_ITLB WRITEBACK ACCESS:          0  HIT:          0  MISS:          0
cpu0_ITLB TRANSLATION ACCESS:          0  HIT:          0  MISS:          0
cpu0_ITLB PREFETCH  REQUESTED:          0  ISSUED:          0  USEFUL:          0  USELESS:          0
cpu0_ITLB AVERAGE MISS LATENCY: 9.25806 cycles
cpu0_L1I TOTAL     ACCESS:   12888821  HIT:   12345944  MISS:     542877
cpu0_L1I LOAD      ACCESS:    3230296  HIT:    3140121  MISS:      90175
cpu0_L1I RFO       ACCESS:          0  HIT:          0  MISS:          0
cpu0_L1I PREFETCH  ACCESS:    9658525  HIT:    9205823  MISS:     452702
cpu0_L1I WRITEBACK ACCESS:          0  HIT:          0  MISS:          0
cpu0_L1I TRANSLATION ACCESS:          0  HIT:          0  MISS:          0
cpu0_L1I PREFETCH  REQUESTED:   18872373  ISSUED:    9694699  USEFUL:     392081  USELESS:      76881
cpu0_L1I AVERAGE MISS LATENCY: 15.2637 cycles
cpu0_STLB TOTAL     ACCESS:     104612  HIT:     100850  MISS:       3762
cpu0_STLB LOAD      ACCESS:      94727  HIT:      92544  MISS:       2183
cpu0_STLB RFO       ACCESS:       9885  HIT:       8306  MISS:       1579
cpu0_STLB PREFETCH  ACCESS:          0  HIT:          0  MISS:          0
cpu0_STLB WRITEBACK ACCESS:          0  HIT:          0  MISS:          0
cpu0_STLB TRANSLATION ACCESS:          0  HIT:          0  MISS:          0
cpu0_STLB PREFETCH  REQUESTED:        460  ISSUED:         48  USEFUL:          0  USELESS:          0
cpu0_STLB AVERAGE MISS LATENCY: 107.367 cycles
cpu0_L1D TOTAL     ACCESS:    9631360  HIT:    9355843  MISS:     275517
cpu0_L1D LOAD      ACCESS:    3065631  HIT:    2982658  MISS:      82973
cpu0_L1D RFO       ACCESS:    3553426  HIT:    3445156  MISS:     108270
cpu0_L1D PREFETCH  ACCESS:    3008650  HIT:    2925310  MISS:      83340
cpu0_L1D WRITEBACK ACCESS:          0  HIT:          0  MISS:          0
cpu0_L1D TRANSLATION ACCESS:       3653  HIT:       2719  MISS:        934
cpu0_L1D PREFETCH  REQUESTED:    3082538  ISSUED:    3062490  USEFUL:      65355  USELESS:      27219
cpu0_L1D AVERAGE MISS LATENCY: 156.04 cycles
cpu0_L2C TOTAL     ACCESS:     963963  HIT:     763738  MISS:     200225
cpu0_L2C LOAD      ACCESS:     150393  HIT:     104895  MISS:      45498
cpu0_L2C RFO       ACCESS:     105576  HIT:      13249  MISS:      92327
cpu0_L2C PREFETCH  ACCESS:     561472  HIT:     499957  MISS:      61515
cpu0_L2C WRITEBACK ACCESS:     145588  HIT:     144864  MISS:        724
cpu0_L2C TRANSLATION ACCESS:        934  HIT:        773  MISS:        161
cpu0_L2C PREFETCH  REQUESTED:          0  ISSUED:          0  USEFUL:          0  USELESS:          0
cpu0_L2C AVERAGE MISS LATENCY: 220.624 cycles
LLC TOTAL     ACCESS:     321226  HIT:     155511  MISS:     165715
LLC LOAD      ACCESS:      45498  HIT:      13228  MISS:      32270
LLC RFO       ACCESS:      92326  HIT:       2407  MISS:      89919
LLC PREFETCH  ACCESS:      61515  HIT:      18601  MISS:      42914
LLC WRITEBACK ACCESS:     121726  HIT:     121169  MISS:        557
LLC TRANSLATION ACCESS:        161  HIT:        106  MISS:         55
LLC PREFETCH  REQUESTED:          0  ISSUED:          0  USEFUL:          0  USELESS:          0
LLC AVERAGE MISS LATENCY: 241.286 cycles
CPU 0 L1I Entangling prefetcher final stats
IP accesses: a11c 284700 53893 / 3237156
IP misses: 260c 98300 845 / 97035
IP hits: 0 0 0 / 0
IP late: 260c 98300 839 / 62609
IP wrong: 860d 218340 1765 / 185793
miss rate: 0.0299754
coverage: 0
coverage_late: 0.645221
accuracy: 0
accuracy_late: 0.252047
discarded: 0
evicts entangled j table: 0
evicts entangled k table: 24199
max bb size: 12
formats: 2981 0 16403 4949 2763 8830 0 
hist_lookups: 15411 19833 17262 13308 10170 7459 5193 3258 2163 1225 763 474 311 193 86 0 6 1863 
hist_lookups_evict: 0.00606195 %
hist_lookups_shortlat: 1.88224 %
bb_found_hist: 0 959312 434912 256083 137797 93003 40803 13500 43697 6509 2983 4185 86 0 0 0 0 0 0 0 0 0 0 0 0 0 0 0 0 0 0 0 0 0 0 0 0 0 0 0 0 0 0 0 0 0 0 0 0 0 0 0 0 0 0 0 0 0 0 0 0 0 0 0 
bb_found_summary: 4437960 1992870 2.22692
entangled_found_hist: 0 417968 393581 960220 191243 42762 22166 0 
entangled_found_summary: 5197568 2027940 2.56298
bb_ent_found_hist: 0 2004850 939017 520951 193158 192658 100015 97234 34912 62266 4377 15918 830 0 0 0 0 0 0 0 0 0 0 0 0 0 0 0 0 0 0 0 0 0 0 0 0 0 0 0 0 0 0 0 0 0 0 0 0 0 0 0 0 0 0 0 0 0 0 0 0 0 0 0 
bb_ent_found_summary: 9530905 4166186 2.28768

DRAM Statistics
 CHANNEL 0
 RQ ROW_BUFFER_HIT:      52064  ROW_BUFFER_MISS:     113073
 DBUS AVG_CONGESTED_CYCLE:    3.94357
 WQ ROW_BUFFER_HIT:      15351  ROW_BUFFER_MISS:     113990  FULL:          0


CPU 0 Branch Prediction Accuracy: 95.7904% MPKI: 7.73784 Average ROB Occupancy at Mispredict: 182.598
Branch type MPKI
BRANCH_DIRECT_JUMP: 0.01288
BRANCH_INDIRECT: 0.57212
BRANCH_CONDITIONAL: 6.22528
BRANCH_DIRECT_CALL: 0.03524
BRANCH_INDIRECT_CALL: 0.41896
BRANCH_RETURN: 0.47336

