
*** ChampSim Multicore Out-of-Order Simulator ***

Warmup Instructions: 25000000
Simulation Instructions: 25000000
Number of CPUs: 1
Off-chip DRAM Size: 4 GiB Channels: 1 Width: 64-bit Data Rate: 3200 MT/s

VirtualMemory physical capacity: 8588881920 num_ppages: 2096895
VirtualMemory page size: 4096 log2_page_size: 12

CPU 0 runs ipc1_public/client_003.champsimtrace.xz
Basic BTB sets: 1024 ways: 8 indirect buffer size: 4096 RAS size: 64
CPU 0 Entangling prefetcher
cpu0_STLB next line prefetcher
cpu0_L1D next line prefetcher
WARNING: The extended signature CACHE::prefetch_line(ip, base_addr, pf_addr, fill_this_level, prefetch_metadata) is deprecated.
WARNING: Use CACHE::prefetch_line(pf_addr, fill_this_level, prefetch_metadata) instead.
Heartbeat CPU 0 instructions: 10000002 cycles: 2505337 heartbeat IPC: 3.99148 cumulative IPC: 3.99148 (Simulation time: 0 hr 0 min 32 sec) 
Heartbeat CPU 0 instructions: 20000001 cycles: 5014766 heartbeat IPC: 3.98497 cumulative IPC: 3.98822 (Simulation time: 0 hr 1 min 7 sec) 

Warmup complete CPU 0 instructions: 25000002 cycles: 6265280 (Simulation time: 0 hr 1 min 24 sec) 

Heartbeat CPU 0 instructions: 30000003 cycles: 9563432 heartbeat IPC: 2.19845 cumulative IPC: 1.516 (Simulation time: 0 hr 1 min 49 sec) 
Heartbeat CPU 0 instructions: 40000000 cycles: 15951958 heartbeat IPC: 1.56531 cumulative IPC: 1.54852 (Simulation time: 0 hr 2 min 40 sec) 
Heartbeat CPU 0 instructions: 50000004 cycles: 21895119 heartbeat IPC: 1.68261 cumulative IPC: 1.5995 (Simulation time: 0 hr 3 min 29 sec) 
Finished CPU 0 instructions: 25000002 cycles: 15629839 cumulative IPC: 1.5995 (Simulation time: 0 hr 3 min 29 sec) 

ChampSim completed all CPUs

Region of Interest Statistics

CPU 0 cumulative IPC: 1.5995 instructions: 25000002 cycles: 15629839
cpu0_DTLB TOTAL     ACCESS:    5014148  HIT:    4960858  MISS:      53290
cpu0_DTLB LOAD      ACCESS:    2847323  HIT:    2799530  MISS:      47793
cpu0_DTLB RFO       ACCESS:    2166825  HIT:    2161328  MISS:       5497
cpu0_DTLB PREFETCH  ACCESS:          0  HIT:          0  MISS:          0
cpu0_DTLB WRITEBACK ACCESS:          0  HIT:          0  MISS:          0
cpu0_DTLB TRANSLATION ACCESS:          0  HIT:          0  MISS:          0
cpu0_DTLB PREFETCH  REQUESTED:          0  ISSUED:          0  USEFUL:          0  USELESS:          0
cpu0_DTLB AVERAGE MISS LATENCY: 10.3067 cycles
cpu0_ITLB TOTAL     ACCESS:    1732461  HIT:    1704407  MISS:      28054
cpu0_ITLB LOAD      ACCESS:    1732461  HIT:    1704407  MISS:      28054
cpu0_ITLB RFO       ACCESS:          0  HIT:          0  MISS:          0
cpu0_ITLB PREFETCH  ACCESS:          0  HIT:          0  MISS:          0
cpu0_ITLB WRITEBACK ACCESS:          0  HIT:          0  MISS:          0
cpu0_ITLB TRANSLATION ACCESS:          0  HIT:          0  MISS:          0
cpu0_ITLB PREFETCH  REQUESTED:          0  ISSUED:          0  USEFUL:          0  USELESS:          0
cpu0_ITLB AVERAGE MISS LATENCY: 9.36679 cycles
cpu0_L1I TOTAL     ACCESS:   10953723  HIT:   10460654  MISS:     493069
cpu0_L1I LOAD      ACCESS:    2737773  HIT:    2658028  MISS:      79745
cpu0_L1I RFO       ACCESS:          0  HIT:          0  MISS:          0
cpu0_L1I PREFETCH  ACCESS:    8215950  HIT:    7802626  MISS:     413324
cpu0_L1I WRITEBACK ACCESS:          0  HIT:          0  MISS:          0
cpu0_L1I TRANSLATION ACCESS:          0  HIT:          0  MISS:          0
cpu0_L1I PREFETCH  REQUESTED:   16292657  ISSUED:    8247606  USEFUL:     352869  USELESS:      74901
cpu0_L1I AVERAGE MISS LATENCY: 17.3446 cycles
cpu0_STLB TOTAL     ACCESS:      81344  HIT:      80557  MISS:        787
cpu0_STLB LOAD      ACCESS:      75847  HIT:      75424  MISS:        423
cpu0_STLB RFO       ACCESS:       5497  HIT:       5133  MISS:        364
cpu0_STLB PREFETCH  ACCESS:          0  HIT:          0  MISS:          0
cpu0_STLB WRITEBACK ACCESS:          0  HIT:          0  MISS:          0
cpu0_STLB TRANSLATION ACCESS:          0  HIT:          0  MISS:          0
cpu0_STLB PREFETCH  REQUESTED:      75847  ISSUED:          0  USEFUL:          0  USELESS:          0
cpu0_STLB AVERAGE MISS LATENCY: 100.379 cycles
cpu0_L1D TOTAL     ACCESS:   10087081  HIT:    9872469  MISS:     214612
cpu0_L1D LOAD      ACCESS:    3216627  HIT:    3152833  MISS:      63794
cpu0_L1D RFO       ACCESS:    3693840  HIT:    3613481  MISS:      80359
cpu0_L1D PREFETCH  ACCESS:    3175829  HIT:    3105827  MISS:      70002
cpu0_L1D WRITEBACK ACCESS:          0  HIT:          0  MISS:          0
cpu0_L1D TRANSLATION ACCESS:        785  HIT:        328  MISS:        457
cpu0_L1D PREFETCH  REQUESTED:    3224648  ISSUED:    3205712  USEFUL:      51780  USELESS:      22139
cpu0_L1D AVERAGE MISS LATENCY: 57.7654 cycles
cpu0_L2C TOTAL     ACCESS:     814060  HIT:     663184  MISS:     150876
cpu0_L2C LOAD      ACCESS:     126459  HIT:      98906  MISS:      27553
cpu0_L2C RFO       ACCESS:      79047  HIT:      16277  MISS:      62770
cpu0_L2C PREFETCH  ACCESS:     501704  HIT:     442080  MISS:      59624
cpu0_L2C WRITEBACK ACCESS:     106393  HIT:     105554  MISS:        839
cpu0_L2C TRANSLATION ACCESS:        457  HIT:        367  MISS:         90
cpu0_L2C PREFETCH  REQUESTED:          0  ISSUED:          0  USEFUL:          0  USELESS:          0
cpu0_L2C AVERAGE MISS LATENCY: 94.0907 cycles
LLC TOTAL     ACCESS:     233952  HIT:     183705  MISS:      50247
LLC LOAD      ACCESS:      27551  HIT:      21304  MISS:       6247
LLC RFO       ACCESS:      62770  HIT:      34211  MISS:      28559
LLC PREFETCH  ACCESS:      59624  HIT:      44458  MISS:      15166
LLC WRITEBACK ACCESS:      83917  HIT:      83659  MISS:        258
LLC TRANSLATION ACCESS:         90  HIT:         73  MISS:         17
LLC PREFETCH  REQUESTED:          0  ISSUED:          0  USEFUL:          0  USELESS:          0
LLC AVERAGE MISS LATENCY: 219.813 cycles
CPU 0 L1I Entangling prefetcher final stats
IP accesses: a11c 284700 45212 / 2742591
IP misses: 260b 982c0 1570 / 84563
IP hits: 0 0 0 / 0
IP late: 260b 982c0 1126 / 54188
IP wrong: 260d 98340 1950 / 177514
miss rate: 0.0308333
coverage: 0
coverage_late: 0.6408
accuracy: 0
accuracy_late: 0.233869
discarded: 0
evicts entangled j table: 0
evicts entangled k table: 19681
max bb size: 15
formats: 1946 879 14481 4350 3262 7421 0 
hist_lookups: 13505 17154 13892 10837 8740 6179 4330 2829 1932 1163 800 533 306 175 95 0 0 1978 
hist_lookups_evict: 0 %
hist_lookups_shortlat: 2.34227 %
bb_found_hist: 0 772369 446952 210598 99055 57018 38726 14148 31747 19703 6221 4263 56 23 0 2 0 0 0 0 0 0 0 0 0 0 0 0 0 0 0 0 0 0 0 0 0 0 0 0 0 0 0 0 0 0 0 0 0 0 0 0 0 0 0 0 0 0 0 0 0 0 0 0 
bb_found_summary: 3852176 1700881 2.26481
entangled_found_hist: 0 295005 315595 846251 204428 40867 8018 0 
entangled_found_summary: 4535103 1710164 2.65185
bb_ent_found_hist: 0 1550506 931605 496869 194719 142738 63838 85886 41558 10988 18982 11974 249 57 0 62 0 0 0 0 0 0 0 0 0 0 0 0 0 0 0 0 0 0 0 0 0 0 0 0 0 0 0 0 0 0 0 0 0 0 0 0 0 0 0 0 0 0 0 0 0 0 0 0 
bb_ent_found_summary: 8138668 3550031 2.29256

DRAM Statistics
 CHANNEL 0
 RQ ROW_BUFFER_HIT:      17054  ROW_BUFFER_MISS:      32925
 DBUS AVG_CONGESTED_CYCLE:    3.93137
 WQ ROW_BUFFER_HIT:       4336  ROW_BUFFER_MISS:      29423  FULL:          0


CPU 0 Branch Prediction Accuracy: 96.1104% MPKI: 7.07976 Average ROB Occupancy at Mispredict: 181.221
Branch type MPKI
BRANCH_DIRECT_JUMP: 0.03796
BRANCH_INDIRECT: 0.72836
BRANCH_CONDITIONAL: 5.65404
BRANCH_DIRECT_CALL: 0.07904
BRANCH_INDIRECT_CALL: 0.38616
BRANCH_RETURN: 0.1942

