
*** ChampSim Multicore Out-of-Order Simulator ***

Warmup Instructions: 25000000
Simulation Instructions: 25000000
Number of CPUs: 1
Off-chip DRAM Size: 4 GiB Channels: 1 Width: 64-bit Data Rate: 3200 MT/s

VirtualMemory physical capacity: 8588881920 num_ppages: 2096895
VirtualMemory page size: 4096 log2_page_size: 12

CPU 0 runs ipc1_public/client_001.champsimtrace.xz
Basic BTB sets: 1024 ways: 8 indirect buffer size: 4096 RAS size: 64
CPU 0 Entangling prefetcher
cpu0_STLB next line prefetcher
cpu0_L1D next line prefetcher
WARNING: The extended signature CACHE::prefetch_line(ip, base_addr, pf_addr, fill_this_level, prefetch_metadata) is deprecated.
WARNING: Use CACHE::prefetch_line(pf_addr, fill_this_level, prefetch_metadata) instead.
Heartbeat CPU 0 instructions: 10000002 cycles: 2692658 heartbeat IPC: 3.7138 cumulative IPC: 3.7138 (Simulation time: 0 hr 0 min 33 sec) 
Heartbeat CPU 0 instructions: 20000001 cycles: 5622432 heartbeat IPC: 3.41323 cumulative IPC: 3.55718 (Simulation time: 0 hr 1 min 7 sec) 

Warmup complete CPU 0 instructions: 25000003 cycles: 6874348 (Simulation time: 0 hr 1 min 22 sec) 

Heartbeat CPU 0 instructions: 30000003 cycles: 10608660 heartbeat IPC: 2.00552 cumulative IPC: 1.33893 (Simulation time: 0 hr 1 min 48 sec) 
Heartbeat CPU 0 instructions: 40000000 cycles: 17710468 heartbeat IPC: 1.40809 cumulative IPC: 1.38426 (Simulation time: 0 hr 2 min 41 sec) 
Heartbeat CPU 0 instructions: 50000001 cycles: 23392254 heartbeat IPC: 1.76001 cumulative IPC: 1.51351 (Simulation time: 0 hr 3 min 27 sec) 
Finished CPU 0 instructions: 25000003 cycles: 16517907 cumulative IPC: 1.51351 (Simulation time: 0 hr 3 min 27 sec) 

ChampSim completed all CPUs

Region of Interest Statistics

CPU 0 cumulative IPC: 1.51351 instructions: 25000003 cycles: 16517907
cpu0_DTLB TOTAL     ACCESS:    5112523  HIT:    4974960  MISS:     137563
cpu0_DTLB LOAD      ACCESS:    3817316  HIT:    3685536  MISS:     131780
cpu0_DTLB RFO       ACCESS:    1295207  HIT:    1289424  MISS:       5783
cpu0_DTLB PREFETCH  ACCESS:          0  HIT:          0  MISS:          0
cpu0_DTLB WRITEBACK ACCESS:          0  HIT:          0  MISS:          0
cpu0_DTLB TRANSLATION ACCESS:          0  HIT:          0  MISS:          0
cpu0_DTLB PREFETCH  REQUESTED:          0  ISSUED:          0  USEFUL:          0  USELESS:          0
cpu0_DTLB AVERAGE MISS LATENCY: 10.2175 cycles
cpu0_ITLB TOTAL     ACCESS:    1574035  HIT:    1545616  MISS:      28419
cpu0_ITLB LOAD      ACCESS:    1574035  HIT:    1545616  MISS:      28419
cpu0_ITLB RFO       ACCESS:          0  HIT:          0  MISS:          0
cpu0_ITLB PREFETCH  ACCESS:          0  HIT:          0  MISS:          0
cpu0_ITLB WRITEBACK ACCESS:          0  HIT:          0  MISS:          0
cpu0_ITLB TRANSLATION ACCESS:          0  HIT:          0  MISS:          0
cpu0_ITLB PREFETCH  REQUESTED:          0  ISSUED:          0  USEFUL:          0  USELESS:          0
cpu0_ITLB AVERAGE MISS LATENCY: 10.0691 cycles
cpu0_L1I TOTAL     ACCESS:    8910897  HIT:    8698741  MISS:     212156
cpu0_L1I LOAD      ACCESS:    2173712  HIT:    2159602  MISS:      14110
cpu0_L1I RFO       ACCESS:          0  HIT:          0  MISS:          0
cpu0_L1I PREFETCH  ACCESS:    6737185  HIT:    6539139  MISS:     198046
cpu0_L1I WRITEBACK ACCESS:          0  HIT:          0  MISS:          0
cpu0_L1I TRANSLATION ACCESS:          0  HIT:          0  MISS:          0
cpu0_L1I PREFETCH  REQUESTED:    9470091  ISSUED:    6744751  USEFUL:     183140  USELESS:      18950
cpu0_L1I AVERAGE MISS LATENCY: 22.037 cycles
cpu0_STLB TOTAL     ACCESS:     165982  HIT:     163703  MISS:       2279
cpu0_STLB LOAD      ACCESS:     160199  HIT:     158290  MISS:       1909
cpu0_STLB RFO       ACCESS:       5783  HIT:       5413  MISS:        370
cpu0_STLB PREFETCH  ACCESS:          0  HIT:          0  MISS:          0
cpu0_STLB WRITEBACK ACCESS:          0  HIT:          0  MISS:          0
cpu0_STLB TRANSLATION ACCESS:          0  HIT:          0  MISS:          0
cpu0_STLB PREFETCH  REQUESTED:     160199  ISSUED:          0  USEFUL:          0  USELESS:          0
cpu0_STLB AVERAGE MISS LATENCY: 84.1395 cycles
cpu0_L1D TOTAL     ACCESS:    9518029  HIT:    8796949  MISS:     721080
cpu0_L1D LOAD      ACCESS:    3849583  HIT:    3499713  MISS:     349870
cpu0_L1D RFO       ACCESS:    1987053  HIT:    1946139  MISS:      40914
cpu0_L1D PREFETCH  ACCESS:    3679141  HIT:    3349466  MISS:     329675
cpu0_L1D WRITEBACK ACCESS:          0  HIT:          0  MISS:          0
cpu0_L1D TRANSLATION ACCESS:       2252  HIT:       1631  MISS:        621
cpu0_L1D PREFETCH  REQUESTED:    3891702  ISSUED:    3809709  USEFUL:     194583  USELESS:     150978
cpu0_L1D AVERAGE MISS LATENCY: 55.3809 cycles
cpu0_L2C TOTAL     ACCESS:    1034833  HIT:     786722  MISS:     248111
cpu0_L2C LOAD      ACCESS:     344760  HIT:     238931  MISS:     105829
cpu0_L2C RFO       ACCESS:      40191  HIT:      13647  MISS:      26544
cpu0_L2C PREFETCH  ACCESS:     547627  HIT:     432174  MISS:     115453
cpu0_L2C WRITEBACK ACCESS:     101634  HIT:     101429  MISS:        205
cpu0_L2C TRANSLATION ACCESS:        621  HIT:        541  MISS:         80
cpu0_L2C PREFETCH  REQUESTED:          0  ISSUED:          0  USEFUL:          0  USELESS:          0
cpu0_L2C AVERAGE MISS LATENCY: 146.632 cycles
LLC TOTAL     ACCESS:     312755  HIT:     221991  MISS:      90764
LLC LOAD      ACCESS:     105828  HIT:      76335  MISS:      29493
LLC RFO       ACCESS:      26542  HIT:       4593  MISS:      21949
LLC PREFETCH  ACCESS:     115452  HIT:      76269  MISS:      39183
LLC WRITEBACK ACCESS:      64853  HIT:      64736  MISS:        117
LLC TRANSLATION ACCESS:         80  HIT:         58  MISS:         22
LLC PREFETCH  REQUESTED:          0  ISSUED:          0  USEFUL:          0  USELESS:          0
LLC AVERAGE MISS LATENCY: 343.47 cycles
CPU 0 L1I Entangling prefetcher final stats
IP accesses: e818 3a0600 17987 / 2174370
IP misses: 12fb 4bec0 207 / 14768
IP hits: 0 0 0 / 0
IP late: ab5c 2ad700 125 / 10076
IP wrong: 354 d500 439 / 43970
miss rate: 0.00679185
coverage: 0
coverage_late: 0.682286
accuracy: 0
accuracy_late: 0.186434
discarded: 0
evicts entangled j table: 0
evicts entangled k table: 2492
max bb size: 32
formats: 13 825 2858 540 160 655 0 
hist_lookups: 2434 2745 1705 1244 952 879 741 556 403 267 146 98 85 54 19 0 0 592 
hist_lookups_evict: 0 %
hist_lookups_shortlat: 4.58204 %
bb_found_hist: 0 379859 231662 162476 109080 43859 42187 55159 20449 11549 20549 6131 4922 6063 3344 763 206 0 0 0 0 0 0 209 0 0 0 0 0 0 0 0 209 0 0 0 0 0 0 0 0 0 0 0 0 0 0 0 0 0 0 0 0 0 0 0 0 0 0 0 0 0 0 0 
bb_found_summary: 3376860 1098676 3.07357
entangled_found_hist: 0 249113 246599 431368 8957 1223 244 0 
entangled_found_summary: 2079822 937504 2.21847
bb_ent_found_hist: 0 424013 299324 207141 138934 69523 55123 37548 30710 6656 22262 2941 8842 6400 14416 43 328 0 0 0 0 0 0 214 0 0 0 0 0 0 0 0 408 0 0 0 0 0 0 0 0 0 0 0 0 0 0 0 0 0 0 0 0 0 0 0 0 0 0 0 0 0 0 0 
bb_ent_found_summary: 4116563 1324826 3.10725

DRAM Statistics
 CHANNEL 0
 RQ ROW_BUFFER_HIT:      19292  ROW_BUFFER_MISS:      71321
 DBUS AVG_CONGESTED_CYCLE:    3.89176
 WQ ROW_BUFFER_HIT:       5578  ROW_BUFFER_MISS:      42212  FULL:          0


CPU 0 Branch Prediction Accuracy: 94.4623% MPKI: 9.58692 Average ROB Occupancy at Mispredict: 188.045
Branch type MPKI
BRANCH_DIRECT_JUMP: 0.00684
BRANCH_INDIRECT: 0.1394
BRANCH_CONDITIONAL: 8.57544
BRANCH_DIRECT_CALL: 0.00968
BRANCH_INDIRECT_CALL: 0.7376
BRANCH_RETURN: 0.11796

