
*** ChampSim Multicore Out-of-Order Simulator ***

Warmup Instructions: 25000000
Simulation Instructions: 25000000
Number of CPUs: 1
Off-chip DRAM Size: 4 GiB Channels: 1 Width: 64-bit Data Rate: 3200 MT/s

VirtualMemory physical capacity: 8588881920 num_ppages: 2096895
VirtualMemory page size: 4096 log2_page_size: 12

CPU 0 runs ipc1_public/client_002.champsimtrace.xz
Basic BTB sets: 1024 ways: 8 indirect buffer size: 4096 RAS size: 64
cpu0_L1D next line prefetcher
WARNING: The extended signature CACHE::prefetch_line(ip, base_addr, pf_addr, fill_this_level, prefetch_metadata) is deprecated.
WARNING: Use CACHE::prefetch_line(pf_addr, fill_this_level, prefetch_metadata) instead.
Heartbeat CPU 0 instructions: 10000000 cycles: 2514054 heartbeat IPC: 3.97764 cumulative IPC: 3.97764 (Simulation time: 0 hr 0 min 21 sec) 
Heartbeat CPU 0 instructions: 20000001 cycles: 5028679 heartbeat IPC: 3.97674 cumulative IPC: 3.97719 (Simulation time: 0 hr 0 min 42 sec) 

Warmup complete CPU 0 instructions: 25000002 cycles: 6285884 (Simulation time: 0 hr 0 min 53 sec) 

Heartbeat CPU 0 instructions: 30000000 cycles: 9340053 heartbeat IPC: 2.31945 cumulative IPC: 1.63711 (Simulation time: 0 hr 1 min 9 sec) 
Heartbeat CPU 0 instructions: 40000000 cycles: 15447775 heartbeat IPC: 1.63727 cumulative IPC: 1.63722 (Simulation time: 0 hr 1 min 40 sec) 
Heartbeat CPU 0 instructions: 50000004 cycles: 21423625 heartbeat IPC: 1.6734 cumulative IPC: 1.6515 (Simulation time: 0 hr 2 min 11 sec) 
Finished CPU 0 instructions: 25000002 cycles: 15137741 cumulative IPC: 1.6515 (Simulation time: 0 hr 2 min 11 sec) 

ChampSim completed all CPUs

Region of Interest Statistics

CPU 0 cumulative IPC: 1.6515 instructions: 25000002 cycles: 15137741
cpu0_DTLB TOTAL     ACCESS:    4741441  HIT:    4660143  MISS:      81298
cpu0_DTLB LOAD      ACCESS:    2854216  HIT:    2778193  MISS:      76023
cpu0_DTLB RFO       ACCESS:    1887225  HIT:    1881950  MISS:       5275
cpu0_DTLB PREFETCH  ACCESS:          0  HIT:          0  MISS:          0
cpu0_DTLB WRITEBACK ACCESS:          0  HIT:          0  MISS:          0
cpu0_DTLB TRANSLATION ACCESS:          0  HIT:          0  MISS:          0
cpu0_DTLB PREFETCH  REQUESTED:          0  ISSUED:          0  USEFUL:          0  USELESS:          0
cpu0_DTLB AVERAGE MISS LATENCY: 10.4561 cycles
cpu0_ITLB TOTAL     ACCESS:    1801128  HIT:    1751909  MISS:      49219
cpu0_ITLB LOAD      ACCESS:    1801128  HIT:    1751909  MISS:      49219
cpu0_ITLB RFO       ACCESS:          0  HIT:          0  MISS:          0
cpu0_ITLB PREFETCH  ACCESS:          0  HIT:          0  MISS:          0
cpu0_ITLB WRITEBACK ACCESS:          0  HIT:          0  MISS:          0
cpu0_ITLB TRANSLATION ACCESS:          0  HIT:          0  MISS:          0
cpu0_ITLB PREFETCH  REQUESTED:          0  ISSUED:          0  USEFUL:          0  USELESS:          0
cpu0_ITLB AVERAGE MISS LATENCY: 9.31756 cycles
cpu0_L1I TOTAL     ACCESS:    2519239  HIT:    2294156  MISS:     225083
cpu0_L1I LOAD      ACCESS:    2519239  HIT:    2294156  MISS:     225083
cpu0_L1I RFO       ACCESS:          0  HIT:          0  MISS:          0
cpu0_L1I PREFETCH  ACCESS:          0  HIT:          0  MISS:          0
cpu0_L1I WRITEBACK ACCESS:          0  HIT:          0  MISS:          0
cpu0_L1I TRANSLATION ACCESS:          0  HIT:          0  MISS:          0
cpu0_L1I PREFETCH  REQUESTED:          0  ISSUED:          0  USEFUL:          0  USELESS:          0
cpu0_L1I AVERAGE MISS LATENCY: 16.2214 cycles
cpu0_STLB TOTAL     ACCESS:     130517  HIT:     126519  MISS:       3998
cpu0_STLB LOAD      ACCESS:     125242  HIT:     121509  MISS:       3733
cpu0_STLB RFO       ACCESS:       5275  HIT:       5010  MISS:        265
cpu0_STLB PREFETCH  ACCESS:          0  HIT:          0  MISS:          0
cpu0_STLB WRITEBACK ACCESS:          0  HIT:          0  MISS:          0
cpu0_STLB TRANSLATION ACCESS:          0  HIT:          0  MISS:          0
cpu0_STLB PREFETCH  REQUESTED:          0  ISSUED:          0  USEFUL:          0  USELESS:          0
cpu0_STLB AVERAGE MISS LATENCY: 32.8682 cycles
cpu0_L1D TOTAL     ACCESS:    9459565  HIT:    9287986  MISS:     171579
cpu0_L1D LOAD      ACCESS:    3133797  HIT:    3074640  MISS:      59157
cpu0_L1D RFO       ACCESS:    3224691  HIT:    3179464  MISS:      45227
cpu0_L1D PREFETCH  ACCESS:    3097108  HIT:    3030698  MISS:      66410
cpu0_L1D WRITEBACK ACCESS:          0  HIT:          0  MISS:          0
cpu0_L1D TRANSLATION ACCESS:       3969  HIT:       3184  MISS:        785
cpu0_L1D PREFETCH  REQUESTED:    3139166  ISSUED:    3123280  USEFUL:      56874  USELESS:      14263
cpu0_L1D AVERAGE MISS LATENCY: 48.3795 cycles
cpu0_L2C TOTAL     ACCESS:     459639  HIT:     344917  MISS:     114722
cpu0_L2C LOAD      ACCESS:     280260  HIT:     219559  MISS:      60701
cpu0_L2C RFO       ACCESS:      44433  HIT:      12996  MISS:      31437
cpu0_L2C PREFETCH  ACCESS:      71177  HIT:      48873  MISS:      22304
cpu0_L2C WRITEBACK ACCESS:      62984  HIT:      62792  MISS:        192
cpu0_L2C TRANSLATION ACCESS:        785  HIT:        697  MISS:         88
cpu0_L2C PREFETCH  REQUESTED:          0  ISSUED:          0  USEFUL:          0  USELESS:          0
cpu0_L2C AVERAGE MISS LATENCY: 67.8625 cycles
LLC TOTAL     ACCESS:     153491  HIT:     130305  MISS:      23186
LLC LOAD      ACCESS:      60701  HIT:      57082  MISS:       3619
LLC RFO       ACCESS:      31437  HIT:      16599  MISS:      14838
LLC PREFETCH  ACCESS:      22304  HIT:      17636  MISS:       4668
LLC WRITEBACK ACCESS:      38961  HIT:      38905  MISS:         56
LLC TRANSLATION ACCESS:         88  HIT:         83  MISS:          5
LLC PREFETCH  REQUESTED:          0  ISSUED:          0  USEFUL:          0  USELESS:          0
LLC AVERAGE MISS LATENCY: 232.041 cycles

DRAM Statistics
 CHANNEL 0
 RQ ROW_BUFFER_HIT:       9530  ROW_BUFFER_MISS:      13600
 DBUS AVG_CONGESTED_CYCLE:    3.94486
 WQ ROW_BUFFER_HIT:       2009  ROW_BUFFER_MISS:      11588  FULL:          0


CPU 0 Branch Prediction Accuracy: 96.0444% MPKI: 7.48676 Average ROB Occupancy at Mispredict: 152.528
Branch type MPKI
BRANCH_DIRECT_JUMP: 0.05004
BRANCH_INDIRECT: 0.66856
BRANCH_CONDITIONAL: 6.25044
BRANCH_DIRECT_CALL: 0.09008
BRANCH_INDIRECT_CALL: 0.37956
BRANCH_RETURN: 0.04808

