
*** ChampSim Multicore Out-of-Order Simulator ***

Warmup Instructions: 25000000
Simulation Instructions: 25000000
Number of CPUs: 1
Off-chip DRAM Size: 4 GiB Channels: 1 Width: 64-bit Data Rate: 3200 MT/s

VirtualMemory physical capacity: 8588881920 num_ppages: 2096895
VirtualMemory page size: 4096 log2_page_size: 12

CPU 0 runs ipc1_public/client_005.champsimtrace.xz
Basic BTB sets: 1024 ways: 8 indirect buffer size: 4096 RAS size: 64
cpu0_STLB arbitrary stride prefetcher
cpu0_L1D next line prefetcher
WARNING: The extended signature CACHE::prefetch_line(ip, base_addr, pf_addr, fill_this_level, prefetch_metadata) is deprecated.
WARNING: Use CACHE::prefetch_line(pf_addr, fill_this_level, prefetch_metadata) instead.
Heartbeat CPU 0 instructions: 10000003 cycles: 2533359 heartbeat IPC: 3.94733 cumulative IPC: 3.94733 (Simulation time: 0 hr 0 min 17 sec) 
Heartbeat CPU 0 instructions: 20000001 cycles: 5047541 heartbeat IPC: 3.97744 cumulative IPC: 3.96233 (Simulation time: 0 hr 0 min 36 sec) 

Warmup complete CPU 0 instructions: 25000001 cycles: 6297793 (Simulation time: 0 hr 0 min 46 sec) 

Heartbeat CPU 0 instructions: 30000002 cycles: 9906769 heartbeat IPC: 2.05794 cumulative IPC: 1.38543 (Simulation time: 0 hr 1 min 2 sec) 
Heartbeat CPU 0 instructions: 40000000 cycles: 17339627 heartbeat IPC: 1.34538 cumulative IPC: 1.35847 (Simulation time: 0 hr 1 min 35 sec) 
Heartbeat CPU 0 instructions: 50000001 cycles: 27204023 heartbeat IPC: 1.01375 cumulative IPC: 1.19582 (Simulation time: 0 hr 2 min 20 sec) 
Finished CPU 0 instructions: 25000000 cycles: 20906230 cumulative IPC: 1.19582 (Simulation time: 0 hr 2 min 20 sec) 

ChampSim completed all CPUs

Region of Interest Statistics

CPU 0 cumulative IPC: 1.19582 instructions: 25000000 cycles: 20906230
cpu0_DTLB TOTAL     ACCESS:    4927282  HIT:    4857876  MISS:      69406
cpu0_DTLB LOAD      ACCESS:    2757779  HIT:    2698252  MISS:      59527
cpu0_DTLB RFO       ACCESS:    2169503  HIT:    2159624  MISS:       9879
cpu0_DTLB PREFETCH  ACCESS:          0  HIT:          0  MISS:          0
cpu0_DTLB WRITEBACK ACCESS:          0  HIT:          0  MISS:          0
cpu0_DTLB TRANSLATION ACCESS:          0  HIT:          0  MISS:          0
cpu0_DTLB PREFETCH  REQUESTED:          0  ISSUED:          0  USEFUL:          0  USELESS:          0
cpu0_DTLB AVERAGE MISS LATENCY: 14.5607 cycles
cpu0_ITLB TOTAL     ACCESS:    1746686  HIT:    1711518  MISS:      35168
cpu0_ITLB LOAD      ACCESS:    1746686  HIT:    1711518  MISS:      35168
cpu0_ITLB RFO       ACCESS:          0  HIT:          0  MISS:          0
cpu0_ITLB PREFETCH  ACCESS:          0  HIT:          0  MISS:          0
cpu0_ITLB WRITEBACK ACCESS:          0  HIT:          0  MISS:          0
cpu0_ITLB TRANSLATION ACCESS:          0  HIT:          0  MISS:          0
cpu0_ITLB PREFETCH  REQUESTED:          0  ISSUED:          0  USEFUL:          0  USELESS:          0
cpu0_ITLB AVERAGE MISS LATENCY: 9.20601 cycles
cpu0_L1I TOTAL     ACCESS:    3224110  HIT:    3000200  MISS:     223910
cpu0_L1I LOAD      ACCESS:    3224110  HIT:    3000200  MISS:     223910
cpu0_L1I RFO       ACCESS:          0  HIT:          0  MISS:          0
cpu0_L1I PREFETCH  ACCESS:          0  HIT:          0  MISS:          0
cpu0_L1I WRITEBACK ACCESS:          0  HIT:          0  MISS:          0
cpu0_L1I TRANSLATION ACCESS:          0  HIT:          0  MISS:          0
cpu0_L1I PREFETCH  REQUESTED:          0  ISSUED:          0  USEFUL:          0  USELESS:          0
cpu0_L1I AVERAGE MISS LATENCY: 17.8954 cycles
cpu0_STLB TOTAL     ACCESS:     104574  HIT:     100813  MISS:       3761
cpu0_STLB LOAD      ACCESS:      94695  HIT:      92513  MISS:       2182
cpu0_STLB RFO       ACCESS:       9879  HIT:       8300  MISS:       1579
cpu0_STLB PREFETCH  ACCESS:          0  HIT:          0  MISS:          0
cpu0_STLB WRITEBACK ACCESS:          0  HIT:          0  MISS:          0
cpu0_STLB TRANSLATION ACCESS:          0  HIT:          0  MISS:          0
cpu0_STLB PREFETCH  REQUESTED:        460  ISSUED:         48  USEFUL:          0  USELESS:          0
cpu0_STLB AVERAGE MISS LATENCY: 104.212 cycles
cpu0_L1D TOTAL     ACCESS:    9671967  HIT:    9396396  MISS:     275571
cpu0_L1D LOAD      ACCESS:    3084671  HIT:    3001830  MISS:      82841
cpu0_L1D RFO       ACCESS:    3555163  HIT:    3446853  MISS:     108310
cpu0_L1D PREFETCH  ACCESS:    3028470  HIT:    2944985  MISS:      83485
cpu0_L1D WRITEBACK ACCESS:          0  HIT:          0  MISS:          0
cpu0_L1D TRANSLATION ACCESS:       3663  HIT:       2728  MISS:        935
cpu0_L1D PREFETCH  REQUESTED:    3101605  ISSUED:    3082226  USEFUL:      65797  USELESS:      27108
cpu0_L1D AVERAGE MISS LATENCY: 154.846 cycles
cpu0_L2C TOTAL     ACCESS:     644996  HIT:     445904  MISS:     199092
cpu0_L2C LOAD      ACCESS:     300066  HIT:     246628  MISS:      53438
cpu0_L2C RFO       ACCESS:     105570  HIT:      13259  MISS:      92311
cpu0_L2C PREFETCH  ACCESS:      92890  HIT:      40325  MISS:      52565
cpu0_L2C WRITEBACK ACCESS:     145535  HIT:     144917  MISS:        618
cpu0_L2C TRANSLATION ACCESS:        935  HIT:        775  MISS:        160
cpu0_L2C PREFETCH  REQUESTED:          0  ISSUED:          0  USEFUL:          0  USELESS:          0
cpu0_L2C AVERAGE MISS LATENCY: 213.844 cycles
LLC TOTAL     ACCESS:     320060  HIT:     154965  MISS:     165095
LLC LOAD      ACCESS:      53438  HIT:      17648  MISS:      35790
LLC RFO       ACCESS:      92311  HIT:       2484  MISS:      89827
LLC PREFETCH  ACCESS:      52565  HIT:      13680  MISS:      38885
LLC WRITEBACK ACCESS:     121586  HIT:     121052  MISS:        534
LLC TRANSLATION ACCESS:        160  HIT:        101  MISS:         59
LLC PREFETCH  REQUESTED:          0  ISSUED:          0  USEFUL:          0  USELESS:          0
LLC AVERAGE MISS LATENCY: 232.632 cycles

DRAM Statistics
 CHANNEL 0
 RQ ROW_BUFFER_HIT:      51966  ROW_BUFFER_MISS:     112574
 DBUS AVG_CONGESTED_CYCLE:     3.9412
 WQ ROW_BUFFER_HIT:      15771  ROW_BUFFER_MISS:     113252  FULL:          0


CPU 0 Branch Prediction Accuracy: 95.7904% MPKI: 7.73784 Average ROB Occupancy at Mispredict: 174.278
Branch type MPKI
BRANCH_DIRECT_JUMP: 0.01288
BRANCH_INDIRECT: 0.57212
BRANCH_CONDITIONAL: 6.22528
BRANCH_DIRECT_CALL: 0.03524
BRANCH_INDIRECT_CALL: 0.41896
BRANCH_RETURN: 0.47336

