
*** ChampSim Multicore Out-of-Order Simulator ***

Warmup Instructions: 25000000
Simulation Instructions: 25000000
Number of CPUs: 1
Off-chip DRAM Size: 4 GiB Channels: 1 Width: 64-bit Data Rate: 3200 MT/s

VirtualMemory physical capacity: 8588881920 num_ppages: 2096895
VirtualMemory page size: 4096 log2_page_size: 12

CPU 0 runs ipc1_public/client_005.champsimtrace.xz
Basic BTB sets: 1024 ways: 8 indirect buffer size: 4096 RAS size: 64
CPU 0 Entangling prefetcher
cpu0_STLB next line prefetcher
cpu0_L1D next line prefetcher
WARNING: The extended signature CACHE::prefetch_line(ip, base_addr, pf_addr, fill_this_level, prefetch_metadata) is deprecated.
WARNING: Use CACHE::prefetch_line(pf_addr, fill_this_level, prefetch_metadata) instead.
Heartbeat CPU 0 instructions: 10000002 cycles: 2528953 heartbeat IPC: 3.95421 cumulative IPC: 3.95421 (Simulation time: 0 hr 0 min 25 sec) 
Heartbeat CPU 0 instructions: 20000001 cycles: 5038498 heartbeat IPC: 3.98479 cumulative IPC: 3.96944 (Simulation time: 0 hr 0 min 51 sec) 

Warmup complete CPU 0 instructions: 25000003 cycles: 6288665 (Simulation time: 0 hr 1 min 5 sec) 

Heartbeat CPU 0 instructions: 30000002 cycles: 9830805 heartbeat IPC: 2.08668 cumulative IPC: 1.41158 (Simulation time: 0 hr 1 min 28 sec) 
Heartbeat CPU 0 instructions: 40000000 cycles: 17116621 heartbeat IPC: 1.37253 cumulative IPC: 1.3853 (Simulation time: 0 hr 2 min 13 sec) 
Heartbeat CPU 0 instructions: 50000001 cycles: 26692379 heartbeat IPC: 1.0443 cumulative IPC: 1.22527 (Simulation time: 0 hr 3 min 3 sec) 
Finished CPU 0 instructions: 25000003 cycles: 20403715 cumulative IPC: 1.22527 (Simulation time: 0 hr 3 min 3 sec) 

ChampSim completed all CPUs

Region of Interest Statistics

CPU 0 cumulative IPC: 1.22527 instructions: 25000003 cycles: 20403715
cpu0_DTLB TOTAL     ACCESS:    4902963  HIT:    4833517  MISS:      69446
cpu0_DTLB LOAD      ACCESS:    2737826  HIT:    2678264  MISS:      59562
cpu0_DTLB RFO       ACCESS:    2165137  HIT:    2155253  MISS:       9884
cpu0_DTLB PREFETCH  ACCESS:          0  HIT:          0  MISS:          0
cpu0_DTLB WRITEBACK ACCESS:          0  HIT:          0  MISS:          0
cpu0_DTLB TRANSLATION ACCESS:          0  HIT:          0  MISS:          0
cpu0_DTLB PREFETCH  REQUESTED:          0  ISSUED:          0  USEFUL:          0  USELESS:          0
cpu0_DTLB AVERAGE MISS LATENCY: 14.5849 cycles
cpu0_ITLB TOTAL     ACCESS:    1746107  HIT:    1710938  MISS:      35169
cpu0_ITLB LOAD      ACCESS:    1746107  HIT:    1710938  MISS:      35169
cpu0_ITLB RFO       ACCESS:          0  HIT:          0  MISS:          0
cpu0_ITLB PREFETCH  ACCESS:          0  HIT:          0  MISS:          0
cpu0_ITLB WRITEBACK ACCESS:          0  HIT:          0  MISS:          0
cpu0_ITLB TRANSLATION ACCESS:          0  HIT:          0  MISS:          0
cpu0_ITLB PREFETCH  REQUESTED:          0  ISSUED:          0  USEFUL:          0  USELESS:          0
cpu0_ITLB AVERAGE MISS LATENCY: 9.21587 cycles
cpu0_L1I TOTAL     ACCESS:   12796484  HIT:   12248975  MISS:     547509
cpu0_L1I LOAD      ACCESS:    3229890  HIT:    3139006  MISS:      90884
cpu0_L1I RFO       ACCESS:          0  HIT:          0  MISS:          0
cpu0_L1I PREFETCH  ACCESS:    9566594  HIT:    9109969  MISS:     456625
cpu0_L1I WRITEBACK ACCESS:          0  HIT:          0  MISS:          0
cpu0_L1I TRANSLATION ACCESS:          0  HIT:          0  MISS:          0
cpu0_L1I PREFETCH  REQUESTED:   18457592  ISSUED:    9602221  USEFUL:     395480  USELESS:      77076
cpu0_L1I AVERAGE MISS LATENCY: 15.1886 cycles
cpu0_STLB TOTAL     ACCESS:     104615  HIT:     100854  MISS:       3761
cpu0_STLB LOAD      ACCESS:      94731  HIT:      92549  MISS:       2182
cpu0_STLB RFO       ACCESS:       9884  HIT:       8305  MISS:       1579
cpu0_STLB PREFETCH  ACCESS:          0  HIT:          0  MISS:          0
cpu0_STLB WRITEBACK ACCESS:          0  HIT:          0  MISS:          0
cpu0_STLB TRANSLATION ACCESS:          0  HIT:          0  MISS:          0
cpu0_STLB PREFETCH  REQUESTED:      94731  ISSUED:          0  USEFUL:          0  USELESS:          0
cpu0_STLB AVERAGE MISS LATENCY: 104.763 cycles
cpu0_L1D TOTAL     ACCESS:    9631770  HIT:    9356260  MISS:     275510
cpu0_L1D LOAD      ACCESS:    3065940  HIT:    2982948  MISS:      82992
cpu0_L1D RFO       ACCESS:    3553453  HIT:    3445182  MISS:     108271
cpu0_L1D PREFETCH  ACCESS:    3008723  HIT:    2925410  MISS:      83313
cpu0_L1D WRITEBACK ACCESS:          0  HIT:          0  MISS:          0
cpu0_L1D TRANSLATION ACCESS:       3654  HIT:       2720  MISS:        934
cpu0_L1D PREFETCH  REQUESTED:    3082782  ISSUED:    3062659  USEFUL:      65359  USELESS:      27171
cpu0_L1D AVERAGE MISS LATENCY: 156.662 cycles
cpu0_L2C TOTAL     ACCESS:     968585  HIT:     768408  MISS:     200177
cpu0_L2C LOAD      ACCESS:     151461  HIT:     105983  MISS:      45478
cpu0_L2C RFO       ACCESS:     105574  HIT:      13134  MISS:      92440
cpu0_L2C PREFETCH  ACCESS:     565031  HIT:     503403  MISS:      61628
cpu0_L2C WRITEBACK ACCESS:     145585  HIT:     145123  MISS:        462
cpu0_L2C TRANSLATION ACCESS:        934  HIT:        765  MISS:        169
cpu0_L2C PREFETCH  REQUESTED:          0  ISSUED:          0  USEFUL:          0  USELESS:          0
cpu0_L2C AVERAGE MISS LATENCY: 221.327 cycles
LLC TOTAL     ACCESS:     321493  HIT:     155803  MISS:     165690
LLC LOAD      ACCESS:      45478  HIT:      13259  MISS:      32219
LLC RFO       ACCESS:      92439  HIT:       2652  MISS:      89787
LLC PREFETCH  ACCESS:      61628  HIT:      18504  MISS:      43124
LLC WRITEBACK ACCESS:     121779  HIT:     121271  MISS:        508
LLC TRANSLATION ACCESS:        169  HIT:        117  MISS:         52
LLC PREFETCH  REQUESTED:          0  ISSUED:          0  USEFUL:          0  USELESS:          0
LLC AVERAGE MISS LATENCY: 242.08 cycles
CPU 0 L1I Entangling prefetcher final stats
IP accesses: a11c 284700 53906 / 3237058
IP misses: 260b 982c0 1068 / 98052
IP hits: 0 0 0 / 0
IP late: 260c 98300 964 / 63302
IP wrong: 860d 218340 1738 / 188330
miss rate: 0.0302905
coverage: 0
coverage_late: 0.645596
accuracy: 0
accuracy_late: 0.251566
discarded: 0
evicts entangled j table: 0
evicts entangled k table: 24010
max bb size: 12
formats: 2967 0 16304 5224 2623 8908 0 
hist_lookups: 15502 20022 17281 13109 10393 7323 5245 3333 2126 1268 777 504 329 159 63 0 12 1834 
hist_lookups_evict: 0.012087 %
hist_lookups_shortlat: 1.8473 %
bb_found_hist: 0 948969 427936 250618 137207 92764 40919 13844 43696 6484 2983 4183 86 0 0 0 0 0 0 0 0 0 0 0 0 0 0 0 0 0 0 0 0 0 0 0 0 0 0 0 0 0 0 0 0 0 0 0 0 0 0 0 0 0 0 0 0 0 0 0 0 0 0 0 
bb_found_summary: 4396564 1969689 2.23211
entangled_found_hist: 0 365439 413699 968343 169483 35495 18158 0 
entangled_found_summary: 5062221 1970617 2.56885
bb_ent_found_hist: 0 1859734 954068 571023 225100 182626 88536 72267 46188 40211 3638 17283 275 0 0 0 0 0 0 0 0 0 0 0 0 0 0 0 0 0 0 0 0 0 0 0 0 0 0 0 0 0 0 0 0 0 0 0 0 0 0 0 0 0 0 0 0 0 0 0 0 0 0 0 
bb_ent_found_summary: 9292750 4060949 2.28832

DRAM Statistics
 CHANNEL 0
 RQ ROW_BUFFER_HIT:      52223  ROW_BUFFER_MISS:     112939
 DBUS AVG_CONGESTED_CYCLE:    3.94418
 WQ ROW_BUFFER_HIT:      15428  ROW_BUFFER_MISS:     113682  FULL:          0


CPU 0 Branch Prediction Accuracy: 95.7904% MPKI: 7.73784 Average ROB Occupancy at Mispredict: 182.836
Branch type MPKI
BRANCH_DIRECT_JUMP: 0.01288
BRANCH_INDIRECT: 0.57212
BRANCH_CONDITIONAL: 6.22528
BRANCH_DIRECT_CALL: 0.03524
BRANCH_INDIRECT_CALL: 0.41896
BRANCH_RETURN: 0.47336

