
*** ChampSim Multicore Out-of-Order Simulator ***

Warmup Instructions: 25000000
Simulation Instructions: 25000000
Number of CPUs: 1
Off-chip DRAM Size: 4 GiB Channels: 1 Width: 64-bit Data Rate: 3200 MT/s

VirtualMemory physical capacity: 8588881920 num_ppages: 2096895
VirtualMemory page size: 4096 log2_page_size: 12

CPU 0 runs ipc1_public/client_004.champsimtrace.xz
Basic BTB sets: 1024 ways: 8 indirect buffer size: 4096 RAS size: 64
cpu0_STLB next line prefetcher
cpu0_L1D next line prefetcher
WARNING: The extended signature CACHE::prefetch_line(ip, base_addr, pf_addr, fill_this_level, prefetch_metadata) is deprecated.
WARNING: Use CACHE::prefetch_line(pf_addr, fill_this_level, prefetch_metadata) instead.
Heartbeat CPU 0 instructions: 10000003 cycles: 2755128 heartbeat IPC: 3.6296 cumulative IPC: 3.6296 (Simulation time: 0 hr 0 min 28 sec) 
Heartbeat CPU 0 instructions: 20000003 cycles: 5381316 heartbeat IPC: 3.8078 cumulative IPC: 3.71656 (Simulation time: 0 hr 0 min 54 sec) 

Warmup complete CPU 0 instructions: 25000002 cycles: 6796453 (Simulation time: 0 hr 1 min 8 sec) 

Heartbeat CPU 0 instructions: 30000004 cycles: 11053087 heartbeat IPC: 1.76312 cumulative IPC: 1.17464 (Simulation time: 0 hr 1 min 29 sec) 
Heartbeat CPU 0 instructions: 40000004 cycles: 20721430 heartbeat IPC: 1.0343 cumulative IPC: 1.0772 (Simulation time: 0 hr 2 min 14 sec) 
Heartbeat CPU 0 instructions: 50000004 cycles: 28290468 heartbeat IPC: 1.32117 cumulative IPC: 1.16311 (Simulation time: 0 hr 2 min 57 sec) 
Finished CPU 0 instructions: 25000002 cycles: 21494015 cumulative IPC: 1.16311 (Simulation time: 0 hr 2 min 57 sec) 

ChampSim completed all CPUs

Region of Interest Statistics

CPU 0 cumulative IPC: 1.16311 instructions: 25000002 cycles: 21494015
cpu0_DTLB TOTAL     ACCESS:    5595217  HIT:    5471254  MISS:     123963
cpu0_DTLB LOAD      ACCESS:    3972971  HIT:    3857138  MISS:     115833
cpu0_DTLB RFO       ACCESS:    1622246  HIT:    1614116  MISS:       8130
cpu0_DTLB PREFETCH  ACCESS:          0  HIT:          0  MISS:          0
cpu0_DTLB WRITEBACK ACCESS:          0  HIT:          0  MISS:          0
cpu0_DTLB TRANSLATION ACCESS:          0  HIT:          0  MISS:          0
cpu0_DTLB PREFETCH  REQUESTED:          0  ISSUED:          0  USEFUL:          0  USELESS:          0
cpu0_DTLB AVERAGE MISS LATENCY: 10.353 cycles
cpu0_ITLB TOTAL     ACCESS:    1983619  HIT:    1930190  MISS:      53429
cpu0_ITLB LOAD      ACCESS:    1983619  HIT:    1930190  MISS:      53429
cpu0_ITLB RFO       ACCESS:          0  HIT:          0  MISS:          0
cpu0_ITLB PREFETCH  ACCESS:          0  HIT:          0  MISS:          0
cpu0_ITLB WRITEBACK ACCESS:          0  HIT:          0  MISS:          0
cpu0_ITLB TRANSLATION ACCESS:          0  HIT:          0  MISS:          0
cpu0_ITLB PREFETCH  REQUESTED:          0  ISSUED:          0  USEFUL:          0  USELESS:          0
cpu0_ITLB AVERAGE MISS LATENCY: 10.468 cycles
cpu0_L1I TOTAL     ACCESS:    2578737  HIT:    2300887  MISS:     277850
cpu0_L1I LOAD      ACCESS:    2578737  HIT:    2300887  MISS:     277850
cpu0_L1I RFO       ACCESS:          0  HIT:          0  MISS:          0
cpu0_L1I PREFETCH  ACCESS:          0  HIT:          0  MISS:          0
cpu0_L1I WRITEBACK ACCESS:          0  HIT:          0  MISS:          0
cpu0_L1I TRANSLATION ACCESS:          0  HIT:          0  MISS:          0
cpu0_L1I PREFETCH  REQUESTED:          0  ISSUED:          0  USEFUL:          0  USELESS:          0
cpu0_L1I AVERAGE MISS LATENCY: 27.8148 cycles
cpu0_STLB TOTAL     ACCESS:     177392  HIT:     171777  MISS:       5615
cpu0_STLB LOAD      ACCESS:     169262  HIT:     164026  MISS:       5236
cpu0_STLB RFO       ACCESS:       8130  HIT:       7751  MISS:        379
cpu0_STLB PREFETCH  ACCESS:          0  HIT:          0  MISS:          0
cpu0_STLB WRITEBACK ACCESS:          0  HIT:          0  MISS:          0
cpu0_STLB TRANSLATION ACCESS:          0  HIT:          0  MISS:          0
cpu0_STLB PREFETCH  REQUESTED:     169262  ISSUED:          0  USEFUL:          0  USELESS:          0
cpu0_STLB AVERAGE MISS LATENCY: 43.3596 cycles
cpu0_L1D TOTAL     ACCESS:   10793737  HIT:   10375555  MISS:     418182
cpu0_L1D LOAD      ACCESS:    4219417  HIT:    4029610  MISS:     189807
cpu0_L1D RFO       ACCESS:    2450900  HIT:    2401986  MISS:      48914
cpu0_L1D PREFETCH  ACCESS:    4117869  HIT:    3939550  MISS:     178319
cpu0_L1D WRITEBACK ACCESS:          0  HIT:          0  MISS:          0
cpu0_L1D TRANSLATION ACCESS:       5551  HIT:       4409  MISS:       1142
cpu0_L1D PREFETCH  REQUESTED:    4232202  ISSUED:    4185771  USEFUL:     138745  USELESS:      47537
cpu0_L1D AVERAGE MISS LATENCY: 34.5306 cycles
cpu0_L2C TOTAL     ACCESS:     801235  HIT:     615806  MISS:     185429
cpu0_L2C LOAD      ACCESS:     460888  HIT:     341895  MISS:     118993
cpu0_L2C RFO       ACCESS:      47680  HIT:      23855  MISS:      23825
cpu0_L2C PREFETCH  ACCESS:     186207  HIT:     143994  MISS:      42213
cpu0_L2C WRITEBACK ACCESS:     105318  HIT:     105128  MISS:        190
cpu0_L2C TRANSLATION ACCESS:       1142  HIT:        934  MISS:        208
cpu0_L2C PREFETCH  REQUESTED:          0  ISSUED:          0  USEFUL:          0  USELESS:          0
cpu0_L2C AVERAGE MISS LATENCY: 80.4615 cycles
LLC TOTAL     ACCESS:     222824  HIT:     166468  MISS:      56356
LLC LOAD      ACCESS:     118993  HIT:      90057  MISS:      28936
LLC RFO       ACCESS:      23825  HIT:      10058  MISS:      13767
LLC PREFETCH  ACCESS:      42213  HIT:      28605  MISS:      13608
LLC WRITEBACK ACCESS:      37585  HIT:      37566  MISS:         19
LLC TRANSLATION ACCESS:        208  HIT:        182  MISS:         26
LLC PREFETCH  REQUESTED:          0  ISSUED:          0  USEFUL:          0  USELESS:          0
LLC AVERAGE MISS LATENCY: 195.714 cycles

DRAM Statistics
 CHANNEL 0
 RQ ROW_BUFFER_HIT:      10368  ROW_BUFFER_MISS:      45967
 DBUS AVG_CONGESTED_CYCLE:    3.80547
 WQ ROW_BUFFER_HIT:       5064  ROW_BUFFER_MISS:      12890  FULL:          0


CPU 0 Branch Prediction Accuracy: 91.0499% MPKI: 16.0574 Average ROB Occupancy at Mispredict: 117.512
Branch type MPKI
BRANCH_DIRECT_JUMP: 0.33756
BRANCH_INDIRECT: 3.23968
BRANCH_CONDITIONAL: 9.1052
BRANCH_DIRECT_CALL: 0.54464
BRANCH_INDIRECT_CALL: 1.66768
BRANCH_RETURN: 1.16264

