
*** ChampSim Multicore Out-of-Order Simulator ***

Warmup Instructions: 25000000
Simulation Instructions: 25000000
Number of CPUs: 1
Off-chip DRAM Size: 4 GiB Channels: 1 Width: 64-bit Data Rate: 3200 MT/s

VirtualMemory physical capacity: 8588881920 num_ppages: 2096895
VirtualMemory page size: 4096 log2_page_size: 12

CPU 0 runs ipc1_public/client_002.champsimtrace.xz
Basic BTB sets: 1024 ways: 8 indirect buffer size: 4096 RAS size: 64
cpu0_STLB arbitrary stride prefetcher
cpu0_L1D next line prefetcher
WARNING: The extended signature CACHE::prefetch_line(ip, base_addr, pf_addr, fill_this_level, prefetch_metadata) is deprecated.
WARNING: Use CACHE::prefetch_line(pf_addr, fill_this_level, prefetch_metadata) instead.
Heartbeat CPU 0 instructions: 10000002 cycles: 2513934 heartbeat IPC: 3.97783 cumulative IPC: 3.97783 (Simulation time: 0 hr 0 min 22 sec) 
Heartbeat CPU 0 instructions: 20000001 cycles: 5028433 heartbeat IPC: 3.97693 cumulative IPC: 3.97738 (Simulation time: 0 hr 0 min 44 sec) 

Warmup complete CPU 0 instructions: 25000003 cycles: 6285591 (Simulation time: 0 hr 0 min 55 sec) 

Heartbeat CPU 0 instructions: 30000000 cycles: 9334057 heartbeat IPC: 2.32254 cumulative IPC: 1.64017 (Simulation time: 0 hr 1 min 11 sec) 
Heartbeat CPU 0 instructions: 40000000 cycles: 15433116 heartbeat IPC: 1.6396 cumulative IPC: 1.63979 (Simulation time: 0 hr 1 min 44 sec) 
Heartbeat CPU 0 instructions: 50000004 cycles: 21416125 heartbeat IPC: 1.6714 cumulative IPC: 1.65229 (Simulation time: 0 hr 2 min 17 sec) 
Finished CPU 0 instructions: 25000001 cycles: 15130534 cumulative IPC: 1.65229 (Simulation time: 0 hr 2 min 17 sec) 

ChampSim completed all CPUs

Region of Interest Statistics

CPU 0 cumulative IPC: 1.65229 instructions: 25000001 cycles: 15130534
cpu0_DTLB TOTAL     ACCESS:    4741060  HIT:    4659774  MISS:      81286
cpu0_DTLB LOAD      ACCESS:    2853810  HIT:    2777801  MISS:      76009
cpu0_DTLB RFO       ACCESS:    1887250  HIT:    1881973  MISS:       5277
cpu0_DTLB PREFETCH  ACCESS:          0  HIT:          0  MISS:          0
cpu0_DTLB WRITEBACK ACCESS:          0  HIT:          0  MISS:          0
cpu0_DTLB TRANSLATION ACCESS:          0  HIT:          0  MISS:          0
cpu0_DTLB PREFETCH  REQUESTED:          0  ISSUED:          0  USEFUL:          0  USELESS:          0
cpu0_DTLB AVERAGE MISS LATENCY: 10.4514 cycles
cpu0_ITLB TOTAL     ACCESS:    1800947  HIT:    1751728  MISS:      49219
cpu0_ITLB LOAD      ACCESS:    1800947  HIT:    1751728  MISS:      49219
cpu0_ITLB RFO       ACCESS:          0  HIT:          0  MISS:          0
cpu0_ITLB PREFETCH  ACCESS:          0  HIT:          0  MISS:          0
cpu0_ITLB WRITEBACK ACCESS:          0  HIT:          0  MISS:          0
cpu0_ITLB TRANSLATION ACCESS:          0  HIT:          0  MISS:          0
cpu0_ITLB PREFETCH  REQUESTED:          0  ISSUED:          0  USEFUL:          0  USELESS:          0
cpu0_ITLB AVERAGE MISS LATENCY: 9.31845 cycles
cpu0_L1I TOTAL     ACCESS:    2519337  HIT:    2294264  MISS:     225073
cpu0_L1I LOAD      ACCESS:    2519337  HIT:    2294264  MISS:     225073
cpu0_L1I RFO       ACCESS:          0  HIT:          0  MISS:          0
cpu0_L1I PREFETCH  ACCESS:          0  HIT:          0  MISS:          0
cpu0_L1I WRITEBACK ACCESS:          0  HIT:          0  MISS:          0
cpu0_L1I TRANSLATION ACCESS:          0  HIT:          0  MISS:          0
cpu0_L1I PREFETCH  REQUESTED:          0  ISSUED:          0  USEFUL:          0  USELESS:          0
cpu0_L1I AVERAGE MISS LATENCY: 16.1684 cycles
cpu0_STLB TOTAL     ACCESS:     130505  HIT:     126506  MISS:       3999
cpu0_STLB LOAD      ACCESS:     125228  HIT:     121494  MISS:       3734
cpu0_STLB RFO       ACCESS:       5277  HIT:       5012  MISS:        265
cpu0_STLB PREFETCH  ACCESS:          0  HIT:          0  MISS:          0
cpu0_STLB WRITEBACK ACCESS:          0  HIT:          0  MISS:          0
cpu0_STLB TRANSLATION ACCESS:          0  HIT:          0  MISS:          0
cpu0_STLB PREFETCH  REQUESTED:          5  ISSUED:          5  USEFUL:          0  USELESS:          0
cpu0_STLB AVERAGE MISS LATENCY: 32.7744 cycles
cpu0_L1D TOTAL     ACCESS:    9459169  HIT:    9287582  MISS:     171587
cpu0_L1D LOAD      ACCESS:    3133599  HIT:    3074454  MISS:      59145
cpu0_L1D RFO       ACCESS:    3224567  HIT:    3179329  MISS:      45238
cpu0_L1D PREFETCH  ACCESS:    3097035  HIT:    3030617  MISS:      66418
cpu0_L1D WRITEBACK ACCESS:          0  HIT:          0  MISS:          0
cpu0_L1D TRANSLATION ACCESS:       3968  HIT:       3182  MISS:        786
cpu0_L1D PREFETCH  REQUESTED:    3139042  ISSUED:    3123267  USEFUL:      56876  USELESS:      14264
cpu0_L1D AVERAGE MISS LATENCY: 48.8496 cycles
cpu0_L2C TOTAL     ACCESS:     459666  HIT:     345767  MISS:     113899
cpu0_L2C LOAD      ACCESS:     280255  HIT:     220494  MISS:      59761
cpu0_L2C RFO       ACCESS:      44433  HIT:      12439  MISS:      31994
cpu0_L2C PREFETCH  ACCESS:      71183  HIT:      49269  MISS:      21914
cpu0_L2C WRITEBACK ACCESS:      63009  HIT:      62866  MISS:        143
cpu0_L2C TRANSLATION ACCESS:        786  HIT:        699  MISS:         87
cpu0_L2C PREFETCH  REQUESTED:          0  ISSUED:          0  USEFUL:          0  USELESS:          0
cpu0_L2C AVERAGE MISS LATENCY: 68.972 cycles
LLC TOTAL     ACCESS:     153482  HIT:     130299  MISS:      23183
LLC LOAD      ACCESS:      59761  HIT:      56134  MISS:       3627
LLC RFO       ACCESS:      31992  HIT:      17160  MISS:      14832
LLC PREFETCH  ACCESS:      21914  HIT:      17244  MISS:       4670
LLC WRITEBACK ACCESS:      39728  HIT:      39679  MISS:         49
LLC TRANSLATION ACCESS:         87  HIT:         82  MISS:          5
LLC PREFETCH  REQUESTED:          0  ISSUED:          0  USEFUL:          0  USELESS:          0
LLC AVERAGE MISS LATENCY: 235.816 cycles

DRAM Statistics
 CHANNEL 0
 RQ ROW_BUFFER_HIT:       9507  ROW_BUFFER_MISS:      13627
 DBUS AVG_CONGESTED_CYCLE:    3.94357
 WQ ROW_BUFFER_HIT:       1698  ROW_BUFFER_MISS:      11732  FULL:          0


CPU 0 Branch Prediction Accuracy: 96.0444% MPKI: 7.48676 Average ROB Occupancy at Mispredict: 152.628
Branch type MPKI
BRANCH_DIRECT_JUMP: 0.05004
BRANCH_INDIRECT: 0.66856
BRANCH_CONDITIONAL: 6.25044
BRANCH_DIRECT_CALL: 0.09008
BRANCH_INDIRECT_CALL: 0.37956
BRANCH_RETURN: 0.04808

