
*** ChampSim Multicore Out-of-Order Simulator ***

Warmup Instructions: 25000000
Simulation Instructions: 25000000
Number of CPUs: 1
Off-chip DRAM Size: 4 GiB Channels: 1 Width: 64-bit Data Rate: 3200 MT/s

VirtualMemory physical capacity: 8588881920 num_ppages: 2096895
VirtualMemory page size: 4096 log2_page_size: 12

CPU 0 runs ipc1_public/client_002.champsimtrace.xz
Basic BTB sets: 1024 ways: 8 indirect buffer size: 4096 RAS size: 64
CPU 0 Entangling prefetcher
cpu0_STLB arbitrary stride prefetcher
cpu0_L1D next line prefetcher
WARNING: The extended signature CACHE::prefetch_line(ip, base_addr, pf_addr, fill_this_level, prefetch_metadata) is deprecated.
WARNING: Use CACHE::prefetch_line(pf_addr, fill_this_level, prefetch_metadata) instead.
Heartbeat CPU 0 instructions: 10000002 cycles: 2511761 heartbeat IPC: 3.98127 cumulative IPC: 3.98127 (Simulation time: 0 hr 0 min 27 sec) 
Heartbeat CPU 0 instructions: 20000003 cycles: 5023383 heartbeat IPC: 3.98149 cumulative IPC: 3.98138 (Simulation time: 0 hr 0 min 56 sec) 

Warmup complete CPU 0 instructions: 25000004 cycles: 6279220 (Simulation time: 0 hr 1 min 10 sec) 

Heartbeat CPU 0 instructions: 30000000 cycles: 9198543 heartbeat IPC: 2.39512 cumulative IPC: 1.71272 (Simulation time: 0 hr 1 min 31 sec) 
Heartbeat CPU 0 instructions: 40000000 cycles: 14989378 heartbeat IPC: 1.72687 cumulative IPC: 1.72213 (Simulation time: 0 hr 2 min 11 sec) 
Heartbeat CPU 0 instructions: 50000004 cycles: 20711605 heartbeat IPC: 1.74757 cumulative IPC: 1.73222 (Simulation time: 0 hr 2 min 50 sec) 
Finished CPU 0 instructions: 25000000 cycles: 14432385 cumulative IPC: 1.73222 (Simulation time: 0 hr 2 min 50 sec) 

ChampSim completed all CPUs

Region of Interest Statistics

CPU 0 cumulative IPC: 1.73222 instructions: 25000000 cycles: 14432385
cpu0_DTLB TOTAL     ACCESS:    4707472  HIT:    4626108  MISS:      81364
cpu0_DTLB LOAD      ACCESS:    2827601  HIT:    2751457  MISS:      76144
cpu0_DTLB RFO       ACCESS:    1879871  HIT:    1874651  MISS:       5220
cpu0_DTLB PREFETCH  ACCESS:          0  HIT:          0  MISS:          0
cpu0_DTLB WRITEBACK ACCESS:          0  HIT:          0  MISS:          0
cpu0_DTLB TRANSLATION ACCESS:          0  HIT:          0  MISS:          0
cpu0_DTLB PREFETCH  REQUESTED:          0  ISSUED:          0  USEFUL:          0  USELESS:          0
cpu0_DTLB AVERAGE MISS LATENCY: 10.4434 cycles
cpu0_ITLB TOTAL     ACCESS:    1798082  HIT:    1748855  MISS:      49227
cpu0_ITLB LOAD      ACCESS:    1798082  HIT:    1748855  MISS:      49227
cpu0_ITLB RFO       ACCESS:          0  HIT:          0  MISS:          0
cpu0_ITLB PREFETCH  ACCESS:          0  HIT:          0  MISS:          0
cpu0_ITLB WRITEBACK ACCESS:          0  HIT:          0  MISS:          0
cpu0_ITLB TRANSLATION ACCESS:          0  HIT:          0  MISS:          0
cpu0_ITLB PREFETCH  REQUESTED:          0  ISSUED:          0  USEFUL:          0  USELESS:          0
cpu0_ITLB AVERAGE MISS LATENCY: 9.30654 cycles
cpu0_L1I TOTAL     ACCESS:    9732945  HIT:    9262365  MISS:     470580
cpu0_L1I LOAD      ACCESS:    2516681  HIT:    2445271  MISS:      71410
cpu0_L1I RFO       ACCESS:          0  HIT:          0  MISS:          0
cpu0_L1I PREFETCH  ACCESS:    7216264  HIT:    6817094  MISS:     399170
cpu0_L1I WRITEBACK ACCESS:          0  HIT:          0  MISS:          0
cpu0_L1I TRANSLATION ACCESS:          0  HIT:          0  MISS:          0
cpu0_L1I PREFETCH  REQUESTED:   11596855  ISSUED:    7246155  USEFUL:     356023  USELESS:      56562
cpu0_L1I AVERAGE MISS LATENCY: 13.1791 cycles
cpu0_STLB TOTAL     ACCESS:     130591  HIT:     126594  MISS:       3997
cpu0_STLB LOAD      ACCESS:     125371  HIT:     121639  MISS:       3732
cpu0_STLB RFO       ACCESS:       5220  HIT:       4955  MISS:        265
cpu0_STLB PREFETCH  ACCESS:          0  HIT:          0  MISS:          0
cpu0_STLB WRITEBACK ACCESS:          0  HIT:          0  MISS:          0
cpu0_STLB TRANSLATION ACCESS:          0  HIT:          0  MISS:          0
cpu0_STLB PREFETCH  REQUESTED:          5  ISSUED:          5  USEFUL:          0  USELESS:          0
cpu0_STLB AVERAGE MISS LATENCY: 32.5817 cycles
cpu0_L1D TOTAL     ACCESS:    9396201  HIT:    9224642  MISS:     171559
cpu0_L1D LOAD      ACCESS:    3103791  HIT:    3044314  MISS:      59477
cpu0_L1D RFO       ACCESS:    3221565  HIT:    3176319  MISS:      45246
cpu0_L1D PREFETCH  ACCESS:    3066881  HIT:    3000831  MISS:      66050
cpu0_L1D WRITEBACK ACCESS:          0  HIT:          0  MISS:          0
cpu0_L1D TRANSLATION ACCESS:       3964  HIT:       3178  MISS:        786
cpu0_L1D PREFETCH  REQUESTED:    3109470  ISSUED:    3093929  USEFUL:      56140  USELESS:      14561
cpu0_L1D AVERAGE MISS LATENCY: 50.2171 cycles
cpu0_L2C TOTAL     ACCESS:     705137  HIT:     588225  MISS:     116912
cpu0_L2C LOAD      ACCESS:     113607  HIT:      91593  MISS:      22014
cpu0_L2C RFO       ACCESS:      44421  HIT:      11894  MISS:      32527
cpu0_L2C PREFETCH  ACCESS:     483321  HIT:     421290  MISS:      62031
cpu0_L2C WRITEBACK ACCESS:      63002  HIT:      62760  MISS:        242
cpu0_L2C TRANSLATION ACCESS:        786  HIT:        688  MISS:         98
cpu0_L2C PREFETCH  REQUESTED:          0  ISSUED:          0  USEFUL:          0  USELESS:          0
cpu0_L2C AVERAGE MISS LATENCY: 69.7577 cycles
LLC TOTAL     ACCESS:     157215  HIT:     133993  MISS:      23222
LLC LOAD      ACCESS:      22014  HIT:      18607  MISS:       3407
LLC RFO       ACCESS:      32527  HIT:      17719  MISS:      14808
LLC PREFETCH  ACCESS:      62031  HIT:      57088  MISS:       4943
LLC WRITEBACK ACCESS:      40545  HIT:      40486  MISS:         59
LLC TRANSLATION ACCESS:         98  HIT:         93  MISS:          5
LLC PREFETCH  REQUESTED:          0  ISSUED:          0  USEFUL:          0  USELESS:          0
LLC AVERAGE MISS LATENCY: 245.683 cycles
CPU 0 L1I Entangling prefetcher final stats
IP accesses: ca30 328c00 20573 / 2521253
IP misses: d709 35c240 512 / 75982
IP hits: 0 0 0 / 0
IP late: 2d77 b5dc0 420 / 47504
IP wrong: a0a5 282940 620 / 133389
miss rate: 0.0301366
coverage: 0
coverage_late: 0.625201
accuracy: 0
accuracy_late: 0.262608
discarded: 0
evicts entangled j table: 0
evicts entangled k table: 18089
max bb size: 15
formats: 2789 955 14983 3265 2134 5566 0 
hist_lookups: 11010 15538 13073 10228 8671 6412 4711 3313 2338 1630 1051 697 341 157 135 0 3 2757 
hist_lookups_evict: 0.00365564 %
hist_lookups_shortlat: 3.35953 %
bb_found_hist: 0 702195 363771 191003 79126 30365 15708 1620 9411 29 2010 657 0 0 0 19 0 0 0 0 0 0 0 0 0 0 0 0 0 0 0 0 0 0 0 0 0 0 0 0 0 0 0 0 0 0 0 0 0 0 0 0 0 0 0 0 0 0 0 0 0 0 0 0 
bb_found_summary: 2679824 1395914 1.91976
entangled_found_hist: 0 322049 302103 711142 130259 18624 8271 0 
entangled_found_summary: 3723463 1492448 2.49487
bb_ent_found_hist: 0 1338073 676403 392125 152382 90131 46793 7898 14068 18 3492 2967 0 0 0 54 0 0 0 0 0 0 0 0 0 0 0 0 0 0 0 0 0 0 0 0 0 0 0 0 0 0 0 0 0 0 0 0 0 0 0 0 0 0 0 0 0 0 0 0 0 0 0 0 
bb_ent_found_summary: 5444554 2724404 1.99844

DRAM Statistics
 CHANNEL 0
 RQ ROW_BUFFER_HIT:       9436  ROW_BUFFER_MISS:      13727
 DBUS AVG_CONGESTED_CYCLE:    3.94352
 WQ ROW_BUFFER_HIT:       1875  ROW_BUFFER_MISS:      11708  FULL:          0


CPU 0 Branch Prediction Accuracy: 96.0444% MPKI: 7.48676 Average ROB Occupancy at Mispredict: 165.03
Branch type MPKI
BRANCH_DIRECT_JUMP: 0.05004
BRANCH_INDIRECT: 0.66856
BRANCH_CONDITIONAL: 6.25044
BRANCH_DIRECT_CALL: 0.09008
BRANCH_INDIRECT_CALL: 0.37956
BRANCH_RETURN: 0.04808

