
*** ChampSim Multicore Out-of-Order Simulator ***

Warmup Instructions: 25000000
Simulation Instructions: 25000000
Number of CPUs: 1
Off-chip DRAM Size: 4 GiB Channels: 1 Width: 64-bit Data Rate: 3200 MT/s

VirtualMemory physical capacity: 8588881920 num_ppages: 2096895
VirtualMemory page size: 4096 log2_page_size: 12

CPU 0 runs ipc1_public/client_003.champsimtrace.xz
Basic BTB sets: 1024 ways: 8 indirect buffer size: 4096 RAS size: 64
cpu0_STLB next line prefetcher
cpu0_L1D next line prefetcher
WARNING: The extended signature CACHE::prefetch_line(ip, base_addr, pf_addr, fill_this_level, prefetch_metadata) is deprecated.
WARNING: Use CACHE::prefetch_line(pf_addr, fill_this_level, prefetch_metadata) instead.
Heartbeat CPU 0 instructions: 10000002 cycles: 2507197 heartbeat IPC: 3.98852 cumulative IPC: 3.98852 (Simulation time: 0 hr 0 min 25 sec) 
Heartbeat CPU 0 instructions: 20000001 cycles: 5022649 heartbeat IPC: 3.97543 cumulative IPC: 3.98196 (Simulation time: 0 hr 0 min 49 sec) 

Warmup complete CPU 0 instructions: 25000003 cycles: 6274103 (Simulation time: 0 hr 1 min 2 sec) 

Heartbeat CPU 0 instructions: 30000003 cycles: 9842462 heartbeat IPC: 2.07477 cumulative IPC: 1.4012 (Simulation time: 0 hr 1 min 24 sec) 
Heartbeat CPU 0 instructions: 40000000 cycles: 16574609 heartbeat IPC: 1.48541 cumulative IPC: 1.45624 (Simulation time: 0 hr 2 min 8 sec) 
Heartbeat CPU 0 instructions: 50000004 cycles: 22814119 heartbeat IPC: 1.60269 cumulative IPC: 1.51149 (Simulation time: 0 hr 2 min 50 sec) 
Finished CPU 0 instructions: 25000001 cycles: 16540016 cumulative IPC: 1.51149 (Simulation time: 0 hr 2 min 50 sec) 

ChampSim completed all CPUs

Region of Interest Statistics

CPU 0 cumulative IPC: 1.51149 instructions: 25000001 cycles: 16540016
cpu0_DTLB TOTAL     ACCESS:    5038289  HIT:    4984999  MISS:      53290
cpu0_DTLB LOAD      ACCESS:    2866574  HIT:    2818766  MISS:      47808
cpu0_DTLB RFO       ACCESS:    2171715  HIT:    2166233  MISS:       5482
cpu0_DTLB PREFETCH  ACCESS:          0  HIT:          0  MISS:          0
cpu0_DTLB WRITEBACK ACCESS:          0  HIT:          0  MISS:          0
cpu0_DTLB TRANSLATION ACCESS:          0  HIT:          0  MISS:          0
cpu0_DTLB PREFETCH  REQUESTED:          0  ISSUED:          0  USEFUL:          0  USELESS:          0
cpu0_DTLB AVERAGE MISS LATENCY: 10.3325 cycles
cpu0_ITLB TOTAL     ACCESS:    1732323  HIT:    1704267  MISS:      28056
cpu0_ITLB LOAD      ACCESS:    1732323  HIT:    1704267  MISS:      28056
cpu0_ITLB RFO       ACCESS:          0  HIT:          0  MISS:          0
cpu0_ITLB PREFETCH  ACCESS:          0  HIT:          0  MISS:          0
cpu0_ITLB WRITEBACK ACCESS:          0  HIT:          0  MISS:          0
cpu0_ITLB TRANSLATION ACCESS:          0  HIT:          0  MISS:          0
cpu0_ITLB PREFETCH  REQUESTED:          0  ISSUED:          0  USEFUL:          0  USELESS:          0
cpu0_ITLB AVERAGE MISS LATENCY: 9.38127 cycles
cpu0_L1I TOTAL     ACCESS:    2736436  HIT:    2534392  MISS:     202044
cpu0_L1I LOAD      ACCESS:    2736436  HIT:    2534392  MISS:     202044
cpu0_L1I RFO       ACCESS:          0  HIT:          0  MISS:          0
cpu0_L1I PREFETCH  ACCESS:          0  HIT:          0  MISS:          0
cpu0_L1I WRITEBACK ACCESS:          0  HIT:          0  MISS:          0
cpu0_L1I TRANSLATION ACCESS:          0  HIT:          0  MISS:          0
cpu0_L1I PREFETCH  REQUESTED:          0  ISSUED:          0  USEFUL:          0  USELESS:          0
cpu0_L1I AVERAGE MISS LATENCY: 22.2796 cycles
cpu0_STLB TOTAL     ACCESS:      81346  HIT:      80560  MISS:        786
cpu0_STLB LOAD      ACCESS:      75864  HIT:      75442  MISS:        422
cpu0_STLB RFO       ACCESS:       5482  HIT:       5118  MISS:        364
cpu0_STLB PREFETCH  ACCESS:          0  HIT:          0  MISS:          0
cpu0_STLB WRITEBACK ACCESS:          0  HIT:          0  MISS:          0
cpu0_STLB TRANSLATION ACCESS:          0  HIT:          0  MISS:          0
cpu0_STLB PREFETCH  REQUESTED:      75864  ISSUED:          0  USEFUL:          0  USELESS:          0
cpu0_STLB AVERAGE MISS LATENCY: 102.81 cycles
cpu0_L1D TOTAL     ACCESS:   10133896  HIT:    9919208  MISS:     214688
cpu0_L1D LOAD      ACCESS:    3237654  HIT:    3174067  MISS:      63587
cpu0_L1D RFO       ACCESS:    3698027  HIT:    3617701  MISS:      80326
cpu0_L1D PREFETCH  ACCESS:    3197431  HIT:    3127114  MISS:      70317
cpu0_L1D WRITEBACK ACCESS:          0  HIT:          0  MISS:          0
cpu0_L1D TRANSLATION ACCESS:        784  HIT:        326  MISS:        458
cpu0_L1D PREFETCH  REQUESTED:    3245347  ISSUED:    3226734  USEFUL:      52176  USELESS:      21984
cpu0_L1D AVERAGE MISS LATENCY: 53.8071 cycles
cpu0_L2C TOTAL     ACCESS:     523112  HIT:     380912  MISS:     142200
cpu0_L2C LOAD      ACCESS:     263066  HIT:     213385  MISS:      49681
cpu0_L2C RFO       ACCESS:      79015  HIT:      17396  MISS:      61619
cpu0_L2C PREFETCH  ACCESS:      74178  HIT:      44120  MISS:      30058
cpu0_L2C WRITEBACK ACCESS:     106395  HIT:     105645  MISS:        750
cpu0_L2C TRANSLATION ACCESS:        458  HIT:        366  MISS:         92
cpu0_L2C PREFETCH  REQUESTED:          0  ISSUED:          0  USEFUL:          0  USELESS:          0
cpu0_L2C AVERAGE MISS LATENCY: 82.971 cycles
LLC TOTAL     ACCESS:     223794  HIT:     174686  MISS:      49108
LLC LOAD      ACCESS:      49681  HIT:      37366  MISS:      12315
LLC RFO       ACCESS:      61618  HIT:      33366  MISS:      28252
LLC PREFETCH  ACCESS:      30058  HIT:      21768  MISS:       8290
LLC WRITEBACK ACCESS:      82345  HIT:      82121  MISS:        224
LLC TRANSLATION ACCESS:         92  HIT:         65  MISS:         27
LLC PREFETCH  REQUESTED:          0  ISSUED:          0  USEFUL:          0  USELESS:          0
LLC AVERAGE MISS LATENCY: 179.763 cycles

DRAM Statistics
 CHANNEL 0
 RQ ROW_BUFFER_HIT:      16839  ROW_BUFFER_MISS:      32032
 DBUS AVG_CONGESTED_CYCLE:    3.91939
 WQ ROW_BUFFER_HIT:       5214  ROW_BUFFER_MISS:      27913  FULL:          0


CPU 0 Branch Prediction Accuracy: 96.1104% MPKI: 7.07976 Average ROB Occupancy at Mispredict: 171.82
Branch type MPKI
BRANCH_DIRECT_JUMP: 0.03796
BRANCH_INDIRECT: 0.72836
BRANCH_CONDITIONAL: 5.65404
BRANCH_DIRECT_CALL: 0.07904
BRANCH_INDIRECT_CALL: 0.38616
BRANCH_RETURN: 0.1942

