WARNING: physical memory size is smaller than virtual memory size.
WARNING: option --warmup_instructions is deprecated. Use --warmup-instructions instead.
WARNING: option --simulation_instructions is deprecated. Use --simulation-instructions instead.

*** ChampSim Multicore Out-of-Order Simulator ***
Warmup Instructions: 25000000
Simulation Instructions: 25000000
Number of CPUs: 1
Page size: 4096

Off-chip DRAM Size: 4 GiB Channels: 1 Width: 64-bit Data Race: 3200 MT/s
Heartbeat CPU 0 instructions: 10000003 cycles: 2500892 heartbeat IPC: 3.999 cumulative IPC: 3.999 (Simulation time: 00 hr 00 min 21 sec)
Heartbeat CPU 0 instructions: 20000002 cycles: 5003289 heartbeat IPC: 3.996 cumulative IPC: 3.997 (Simulation time: 00 hr 00 min 42 sec)
Warmup finished CPU 0 instructions: 25000000 cycles: 6255788 cumulative IPC: 3.996 (Simulation time: 00 hr 00 min 52 sec)
Warmup complete CPU 0 instructions: 25000000 cycles: 6255788 cumulative IPC: 3.996 (Simulation time: 00 hr 00 min 52 sec)
Heartbeat CPU 0 instructions: 30000003 cycles: 9416238 heartbeat IPC: 2.266 cumulative IPC: 1.582 (Simulation time: 00 hr 01 min 10 sec)
Heartbeat CPU 0 instructions: 40000003 cycles: 16090519 heartbeat IPC: 1.498 cumulative IPC: 1.525 (Simulation time: 00 hr 01 min 47 sec)
Heartbeat CPU 0 instructions: 50000002 cycles: 21521366 heartbeat IPC: 1.841 cumulative IPC: 1.638 (Simulation time: 00 hr 02 min 22 sec)
Simulation finished CPU 0 instructions: 25000002 cycles: 15265579 cumulative IPC: 1.638 (Simulation time: 00 hr 02 min 22 sec)
Simulation complete CPU 0 instructions: 25000002 cycles: 15265579 cumulative IPC: 1.638 (Simulation time: 00 hr 02 min 22 sec)

ChampSim completed all CPUs

=== Simulation ===
CPU 0 runs ipc1_public/client_004.champsimtrace.xz
Region of Interest Statistics

CPU 0 cumulative IPC: 1.638 instructions: 25000002 cycles: 15265579
CPU 0 Branch Prediction Accuracy: 90.86% MPKI: 16.4 Average ROB Occupancy at Mispredict: 37.08
Branch type MPKI
BRANCH_DIRECT_JUMP: 0.432
BRANCH_INDIRECT: 3.25
BRANCH_CONDITIONAL: 8.84
BRANCH_DIRECT_CALL: 0.691
BRANCH_INDIRECT_CALL: 1.69
BRANCH_RETURN: 1.5

LLC TOTAL        ACCESS:     259735 HIT:     192800 MISS:      66935
LLC LOAD         ACCESS:      89908 HIT:      68578 MISS:      21330
LLC RFO          ACCESS:      25225 HIT:      10365 MISS:      14860
LLC PREFETCH     ACCESS:     100363 HIT:      72422 MISS:      27941
LLC WRITE        ACCESS:      39502 HIT:      39477 MISS:         25
LLC TRANSLATION  ACCESS:       4737 HIT:       1958 MISS:       2779
LLC PREFETCH REQUESTED:          0 ISSUED:          0 USEFUL:          0 USELESS:          0
LLC AVERAGE MISS LATENCY: 215.3 cycles
cpu0_DTLB TOTAL        ACCESS:    6201650 HIT:    6029368 MISS:     172282
cpu0_DTLB LOAD         ACCESS:    6201650 HIT:    6029368 MISS:     172282
cpu0_DTLB RFO          ACCESS:          0 HIT:          0 MISS:          0
cpu0_DTLB PREFETCH     ACCESS:          0 HIT:          0 MISS:          0
cpu0_DTLB WRITE        ACCESS:          0 HIT:          0 MISS:          0
cpu0_DTLB TRANSLATION  ACCESS:          0 HIT:          0 MISS:          0
cpu0_DTLB PREFETCH REQUESTED:          0 ISSUED:          0 USEFUL:          0 USELESS:          0
cpu0_DTLB AVERAGE MISS LATENCY: 8.389 cycles
cpu0_ITLB TOTAL        ACCESS:    2247671 HIT:    2117610 MISS:     130061
cpu0_ITLB LOAD         ACCESS:    2247671 HIT:    2117610 MISS:     130061
cpu0_ITLB RFO          ACCESS:          0 HIT:          0 MISS:          0
cpu0_ITLB PREFETCH     ACCESS:          0 HIT:          0 MISS:          0
cpu0_ITLB WRITE        ACCESS:          0 HIT:          0 MISS:          0
cpu0_ITLB TRANSLATION  ACCESS:          0 HIT:          0 MISS:          0
cpu0_ITLB PREFETCH REQUESTED:          0 ISSUED:          0 USEFUL:          0 USELESS:          0
cpu0_ITLB AVERAGE MISS LATENCY: 4.593 cycles
cpu0_L1D TOTAL        ACCESS:   11442711 HIT:   10680713 MISS:     761998
cpu0_L1D LOAD         ACCESS:    5202090 HIT:    4888047 MISS:     314043
cpu0_L1D RFO          ACCESS:          0 HIT:          0 MISS:          0
cpu0_L1D PREFETCH     ACCESS:    3641282 HIT:    3359570 MISS:     281712
cpu0_L1D WRITE        ACCESS:    2593373 HIT:    2432631 MISS:     160742
cpu0_L1D TRANSLATION  ACCESS:       5966 HIT:        465 MISS:       5501
cpu0_L1D PREFETCH REQUESTED:    5225916 ISSUED:    3641278 USEFUL:      50117 USELESS:     106979
cpu0_L1D AVERAGE MISS LATENCY: 20.22 cycles
cpu0_L1I TOTAL        ACCESS:    2892214 HIT:    1981863 MISS:     910351
cpu0_L1I LOAD         ACCESS:    1442209 HIT:    1025758 MISS:     416451
cpu0_L1I RFO          ACCESS:          0 HIT:          0 MISS:          0
cpu0_L1I PREFETCH     ACCESS:    1450005 HIT:     956105 MISS:     493900
cpu0_L1I WRITE        ACCESS:          0 HIT:          0 MISS:          0
cpu0_L1I TRANSLATION  ACCESS:          0 HIT:          0 MISS:          0
cpu0_L1I PREFETCH REQUESTED:    1450041 ISSUED:    1450005 USEFUL:      88453 USELESS:     127144
cpu0_L1I AVERAGE MISS LATENCY: 11.91 cycles
cpu0_L2C TOTAL        ACCESS:    1007423 HIT:     786809 MISS:     220614
cpu0_L2C LOAD         ACCESS:     472684 HIT:     382776 MISS:      89908
cpu0_L2C RFO          ACCESS:      50575 HIT:      25350 MISS:      25225
cpu0_L2C PREFETCH     ACCESS:     372732 HIT:     272369 MISS:     100363
cpu0_L2C WRITE        ACCESS:     105945 HIT:     105564 MISS:        381
cpu0_L2C TRANSLATION  ACCESS:       5487 HIT:        750 MISS:       4737
cpu0_L2C PREFETCH REQUESTED:          0 ISSUED:          0 USEFUL:          0 USELESS:          0
cpu0_L2C AVERAGE MISS LATENCY: 85.59 cycles
cpu0_STLB TOTAL        ACCESS:     178156 HIT:     172517 MISS:       5639
cpu0_STLB LOAD         ACCESS:     178156 HIT:     172517 MISS:       5639
cpu0_STLB RFO          ACCESS:          0 HIT:          0 MISS:          0
cpu0_STLB PREFETCH     ACCESS:          0 HIT:          0 MISS:          0
cpu0_STLB WRITE        ACCESS:          0 HIT:          0 MISS:          0
cpu0_STLB TRANSLATION  ACCESS:          0 HIT:          0 MISS:          0
cpu0_STLB PREFETCH REQUESTED:          0 ISSUED:          0 USEFUL:          0 USELESS:          0
cpu0_STLB AVERAGE MISS LATENCY: 179.3 cycles

DRAM Statistics

Channel 0 RQ ROW_BUFFER_HIT:      17545
  ROW_BUFFER_MISS:      49355
 AVG DBUS CONGESTED CYCLE: 3.834
WQ ROW_BUFFER_HIT: Channel 0 
  ROW_BUFFER_MISS:       3396
  FULL:      15582
