
*** ChampSim Multicore Out-of-Order Simulator ***

Warmup Instructions: 25000000
Simulation Instructions: 25000000
Number of CPUs: 1
Off-chip DRAM Size: 4 GiB Channels: 1 Width: 64-bit Data Rate: 3200 MT/s

VirtualMemory physical capacity: 8588881920 num_ppages: 2096895
VirtualMemory page size: 4096 log2_page_size: 12

CPU 0 runs ipc1_public/client_002.champsimtrace.xz
Basic BTB sets: 1024 ways: 8 indirect buffer size: 4096 RAS size: 64
cpu0_STLB next line prefetcher
cpu0_L1D next line prefetcher
WARNING: The extended signature CACHE::prefetch_line(ip, base_addr, pf_addr, fill_this_level, prefetch_metadata) is deprecated.
WARNING: Use CACHE::prefetch_line(pf_addr, fill_this_level, prefetch_metadata) instead.
Heartbeat CPU 0 instructions: 10000001 cycles: 2513901 heartbeat IPC: 3.97788 cumulative IPC: 3.97788 (Simulation time: 0 hr 0 min 24 sec) 
Heartbeat CPU 0 instructions: 20000001 cycles: 5028390 heartbeat IPC: 3.97695 cumulative IPC: 3.97742 (Simulation time: 0 hr 0 min 49 sec) 

Warmup complete CPU 0 instructions: 25000004 cycles: 6285509 (Simulation time: 0 hr 1 min 2 sec) 

Heartbeat CPU 0 instructions: 30000000 cycles: 9338143 heartbeat IPC: 2.32032 cumulative IPC: 1.63793 (Simulation time: 0 hr 1 min 21 sec) 
Heartbeat CPU 0 instructions: 40000000 cycles: 15452315 heartbeat IPC: 1.63554 cumulative IPC: 1.63634 (Simulation time: 0 hr 2 min 0 sec) 
Heartbeat CPU 0 instructions: 50000004 cycles: 21436229 heartbeat IPC: 1.67115 cumulative IPC: 1.65009 (Simulation time: 0 hr 2 min 38 sec) 
Finished CPU 0 instructions: 25000000 cycles: 15150720 cumulative IPC: 1.65009 (Simulation time: 0 hr 2 min 38 sec) 

ChampSim completed all CPUs

Region of Interest Statistics

CPU 0 cumulative IPC: 1.65009 instructions: 25000000 cycles: 15150720
cpu0_DTLB TOTAL     ACCESS:    4740901  HIT:    4659607  MISS:      81294
cpu0_DTLB LOAD      ACCESS:    2853767  HIT:    2777754  MISS:      76013
cpu0_DTLB RFO       ACCESS:    1887134  HIT:    1881853  MISS:       5281
cpu0_DTLB PREFETCH  ACCESS:          0  HIT:          0  MISS:          0
cpu0_DTLB WRITEBACK ACCESS:          0  HIT:          0  MISS:          0
cpu0_DTLB TRANSLATION ACCESS:          0  HIT:          0  MISS:          0
cpu0_DTLB PREFETCH  REQUESTED:          0  ISSUED:          0  USEFUL:          0  USELESS:          0
cpu0_DTLB AVERAGE MISS LATENCY: 10.4433 cycles
cpu0_ITLB TOTAL     ACCESS:    1800834  HIT:    1751615  MISS:      49219
cpu0_ITLB LOAD      ACCESS:    1800834  HIT:    1751615  MISS:      49219
cpu0_ITLB RFO       ACCESS:          0  HIT:          0  MISS:          0
cpu0_ITLB PREFETCH  ACCESS:          0  HIT:          0  MISS:          0
cpu0_ITLB WRITEBACK ACCESS:          0  HIT:          0  MISS:          0
cpu0_ITLB TRANSLATION ACCESS:          0  HIT:          0  MISS:          0
cpu0_ITLB PREFETCH  REQUESTED:          0  ISSUED:          0  USEFUL:          0  USELESS:          0
cpu0_ITLB AVERAGE MISS LATENCY: 9.32187 cycles
cpu0_L1I TOTAL     ACCESS:    2519615  HIT:    2294539  MISS:     225076
cpu0_L1I LOAD      ACCESS:    2519615  HIT:    2294539  MISS:     225076
cpu0_L1I RFO       ACCESS:          0  HIT:          0  MISS:          0
cpu0_L1I PREFETCH  ACCESS:          0  HIT:          0  MISS:          0
cpu0_L1I WRITEBACK ACCESS:          0  HIT:          0  MISS:          0
cpu0_L1I TRANSLATION ACCESS:          0  HIT:          0  MISS:          0
cpu0_L1I PREFETCH  REQUESTED:          0  ISSUED:          0  USEFUL:          0  USELESS:          0
cpu0_L1I AVERAGE MISS LATENCY: 16.1202 cycles
cpu0_STLB TOTAL     ACCESS:     130513  HIT:     126508  MISS:       4005
cpu0_STLB LOAD      ACCESS:     125232  HIT:     121492  MISS:       3740
cpu0_STLB RFO       ACCESS:       5281  HIT:       5016  MISS:        265
cpu0_STLB PREFETCH  ACCESS:          0  HIT:          0  MISS:          0
cpu0_STLB WRITEBACK ACCESS:          0  HIT:          0  MISS:          0
cpu0_STLB TRANSLATION ACCESS:          0  HIT:          0  MISS:          0
cpu0_STLB PREFETCH  REQUESTED:     125232  ISSUED:          0  USEFUL:          0  USELESS:          0
cpu0_STLB AVERAGE MISS LATENCY: 32.592 cycles
cpu0_L1D TOTAL     ACCESS:    9454806  HIT:    9283212  MISS:     171594
cpu0_L1D LOAD      ACCESS:    3132959  HIT:    3073740  MISS:      59219
cpu0_L1D RFO       ACCESS:    3221582  HIT:    3176307  MISS:      45275
cpu0_L1D PREFETCH  ACCESS:    3096290  HIT:    3029976  MISS:      66314
cpu0_L1D WRITEBACK ACCESS:          0  HIT:          0  MISS:          0
cpu0_L1D TRANSLATION ACCESS:       3975  HIT:       3189  MISS:        786
cpu0_L1D PREFETCH  REQUESTED:    3138588  ISSUED:    3122902  USEFUL:      56888  USELESS:      14255
cpu0_L1D AVERAGE MISS LATENCY: 49.7099 cycles
cpu0_L2C TOTAL     ACCESS:     459658  HIT:     342735  MISS:     116923
cpu0_L2C LOAD      ACCESS:     280268  HIT:     220624  MISS:      59644
cpu0_L2C RFO       ACCESS:      44429  HIT:      11295  MISS:      33134
cpu0_L2C PREFETCH  ACCESS:      71183  HIT:      47479  MISS:      23704
cpu0_L2C WRITEBACK ACCESS:      62992  HIT:      62594  MISS:        398
cpu0_L2C TRANSLATION ACCESS:        786  HIT:        743  MISS:         43
cpu0_L2C PREFETCH  REQUESTED:          0  ISSUED:          0  USEFUL:          0  USELESS:          0
cpu0_L2C AVERAGE MISS LATENCY: 68.4922 cycles
LLC TOTAL     ACCESS:     158374  HIT:     135004  MISS:      23370
LLC LOAD      ACCESS:      59644  HIT:      55903  MISS:       3741
LLC RFO       ACCESS:      33134  HIT:      18284  MISS:      14850
LLC PREFETCH  ACCESS:      23704  HIT:      18974  MISS:       4730
LLC WRITEBACK ACCESS:      41849  HIT:      41806  MISS:         43
LLC TRANSLATION ACCESS:         43  HIT:         37  MISS:          6
LLC PREFETCH  REQUESTED:          0  ISSUED:          0  USEFUL:          0  USELESS:          0
LLC AVERAGE MISS LATENCY: 237.963 cycles

DRAM Statistics
 CHANNEL 0
 RQ ROW_BUFFER_HIT:       9344  ROW_BUFFER_MISS:      13983
 DBUS AVG_CONGESTED_CYCLE:    3.94153
 WQ ROW_BUFFER_HIT:       1845  ROW_BUFFER_MISS:      12123  FULL:          0


CPU 0 Branch Prediction Accuracy: 96.0444% MPKI: 7.48676 Average ROB Occupancy at Mispredict: 152.643
Branch type MPKI
BRANCH_DIRECT_JUMP: 0.05004
BRANCH_INDIRECT: 0.66856
BRANCH_CONDITIONAL: 6.25044
BRANCH_DIRECT_CALL: 0.09008
BRANCH_INDIRECT_CALL: 0.37956
BRANCH_RETURN: 0.04808

