WARNING: physical memory size is smaller than virtual memory size.
WARNING: option --warmup_instructions is deprecated. Use --warmup-instructions instead.
WARNING: option --simulation_instructions is deprecated. Use --simulation-instructions instead.

*** ChampSim Multicore Out-of-Order Simulator ***
Warmup Instructions: 25000000
Simulation Instructions: 25000000
Number of CPUs: 1
Page size: 4096

CPU 0 Entangling prefetcher
Off-chip DRAM Size: 4 GiB Channels: 1 Width: 64-bit Data Race: 3200 MT/s
Heartbeat CPU 0 instructions: 10000001 cycles: 2500845 heartbeat IPC: 3.999 cumulative IPC: 3.999 (Simulation time: 00 hr 00 min 23 sec)
Heartbeat CPU 0 instructions: 20000001 cycles: 5003219 heartbeat IPC: 3.996 cumulative IPC: 3.997 (Simulation time: 00 hr 00 min 44 sec)
Warmup finished CPU 0 instructions: 25000002 cycles: 6255787 cumulative IPC: 3.996 (Simulation time: 00 hr 00 min 55 sec)
Warmup complete CPU 0 instructions: 25000002 cycles: 6255787 cumulative IPC: 3.996 (Simulation time: 00 hr 00 min 55 sec)
Heartbeat CPU 0 instructions: 30000003 cycles: 8892167 heartbeat IPC: 2.571 cumulative IPC: 1.897 (Simulation time: 00 hr 01 min 13 sec)
Heartbeat CPU 0 instructions: 40000003 cycles: 15547463 heartbeat IPC: 1.503 cumulative IPC: 1.614 (Simulation time: 00 hr 01 min 53 sec)
Heartbeat CPU 0 instructions: 50000002 cycles: 20521318 heartbeat IPC: 2.011 cumulative IPC: 1.752 (Simulation time: 00 hr 02 min 29 sec)
Simulation finished CPU 0 instructions: 25000000 cycles: 14265532 cumulative IPC: 1.752 (Simulation time: 00 hr 02 min 29 sec)
Simulation complete CPU 0 instructions: 25000000 cycles: 14265532 cumulative IPC: 1.752 (Simulation time: 00 hr 02 min 29 sec)

ChampSim completed all CPUs

=== Simulation ===
CPU 0 runs ipc1_public/client_004.champsimtrace.xz
Region of Interest Statistics

CPU 0 cumulative IPC: 1.752 instructions: 25000000 cycles: 14265532
CPU 0 Branch Prediction Accuracy: 90.86% MPKI: 16.4 Average ROB Occupancy at Mispredict: 41.2
Branch type MPKI
BRANCH_DIRECT_JUMP: 0.432
BRANCH_INDIRECT: 3.25
BRANCH_CONDITIONAL: 8.84
BRANCH_DIRECT_CALL: 0.691
BRANCH_INDIRECT_CALL: 1.69
BRANCH_RETURN: 1.5

LLC TOTAL        ACCESS:     245480 HIT:     185326 MISS:      60154
LLC LOAD         ACCESS:      61857 HIT:      38610 MISS:      23247
LLC RFO          ACCESS:      25209 HIT:      10856 MISS:      14353
LLC PREFETCH     ACCESS:     114139 HIT:      94561 MISS:      19578
LLC WRITE        ACCESS:      39111 HIT:      39084 MISS:         27
LLC TRANSLATION  ACCESS:       5164 HIT:       2215 MISS:       2949
LLC PREFETCH REQUESTED:          0 ISSUED:          0 USEFUL:          0 USELESS:          0
LLC AVERAGE MISS LATENCY: 229.8 cycles
cpu0_DTLB TOTAL        ACCESS:    6160546 HIT:    5985719 MISS:     174827
cpu0_DTLB LOAD         ACCESS:    6160546 HIT:    5985719 MISS:     174827
cpu0_DTLB RFO          ACCESS:          0 HIT:          0 MISS:          0
cpu0_DTLB PREFETCH     ACCESS:          0 HIT:          0 MISS:          0
cpu0_DTLB WRITE        ACCESS:          0 HIT:          0 MISS:          0
cpu0_DTLB TRANSLATION  ACCESS:          0 HIT:          0 MISS:          0
cpu0_DTLB PREFETCH REQUESTED:          0 ISSUED:          0 USEFUL:          0 USELESS:          0
cpu0_DTLB AVERAGE MISS LATENCY: 8.455 cycles
cpu0_ITLB TOTAL        ACCESS:    3335259 HIT:    3087787 MISS:     247472
cpu0_ITLB LOAD         ACCESS:    3335259 HIT:    3087787 MISS:     247472
cpu0_ITLB RFO          ACCESS:          0 HIT:          0 MISS:          0
cpu0_ITLB PREFETCH     ACCESS:          0 HIT:          0 MISS:          0
cpu0_ITLB WRITE        ACCESS:          0 HIT:          0 MISS:          0
cpu0_ITLB TRANSLATION  ACCESS:          0 HIT:          0 MISS:          0
cpu0_ITLB PREFETCH REQUESTED:          0 ISSUED:          0 USEFUL:          0 USELESS:          0
cpu0_ITLB AVERAGE MISS LATENCY: 4.758 cycles
cpu0_L1D TOTAL        ACCESS:   11322522 HIT:   10568635 MISS:     753887
cpu0_L1D LOAD         ACCESS:    5168882 HIT:    4854899 MISS:     313983
cpu0_L1D RFO          ACCESS:          0 HIT:          0 MISS:          0
cpu0_L1D PREFETCH     ACCESS:    3554188 HIT:    3282037 MISS:     272151
cpu0_L1D WRITE        ACCESS:    2592974 HIT:    2431208 MISS:     161766
cpu0_L1D TRANSLATION  ACCESS:       6478 HIT:        491 MISS:       5987
cpu0_L1D PREFETCH REQUESTED:    5196810 ISSUED:    3554187 USEFUL:      48546 USELESS:     103060
cpu0_L1D AVERAGE MISS LATENCY: 20.46 cycles
cpu0_L1I TOTAL        ACCESS:    4798224 HIT:    4178973 MISS:     619251
cpu0_L1I LOAD         ACCESS:    1415559 HIT:    1269560 MISS:     145999
cpu0_L1I RFO          ACCESS:          0 HIT:          0 MISS:          0
cpu0_L1I PREFETCH     ACCESS:    3382665 HIT:    2909413 MISS:     473252
cpu0_L1I WRITE        ACCESS:          0 HIT:          0 MISS:          0
cpu0_L1I TRANSLATION  ACCESS:          0 HIT:          0 MISS:          0
cpu0_L1I PREFETCH REQUESTED:    4529918 ISSUED:    3382665 USEFUL:     272374 USELESS:     176532
cpu0_L1I AVERAGE MISS LATENCY: 17.45 cycles
cpu0_L2C TOTAL        ACCESS:    1040754 HIT:     834031 MISS:     206723
cpu0_L2C LOAD         ACCESS:     278860 HIT:     217003 MISS:      61857
cpu0_L2C RFO          ACCESS:      50499 HIT:      25290 MISS:      25209
cpu0_L2C PREFETCH     ACCESS:     600480 HIT:     486341 MISS:     114139
cpu0_L2C WRITE        ACCESS:     104951 HIT:     104597 MISS:        354
cpu0_L2C TRANSLATION  ACCESS:       5964 HIT:        800 MISS:       5164
cpu0_L2C PREFETCH REQUESTED:          0 ISSUED:          0 USEFUL:          0 USELESS:          0
cpu0_L2C AVERAGE MISS LATENCY: 87.15 cycles
cpu0_STLB TOTAL        ACCESS:     256524 HIT:     250429 MISS:       6095
cpu0_STLB LOAD         ACCESS:     256524 HIT:     250429 MISS:       6095
cpu0_STLB RFO          ACCESS:          0 HIT:          0 MISS:          0
cpu0_STLB PREFETCH     ACCESS:          0 HIT:          0 MISS:          0
cpu0_STLB WRITE        ACCESS:          0 HIT:          0 MISS:          0
cpu0_STLB TRANSLATION  ACCESS:          0 HIT:          0 MISS:          0
cpu0_STLB PREFETCH REQUESTED:          0 ISSUED:          0 USEFUL:          0 USELESS:          0
cpu0_STLB AVERAGE MISS LATENCY: 182.5 cycles

DRAM Statistics

Channel 0 RQ ROW_BUFFER_HIT:      15848
  ROW_BUFFER_MISS:      44270
 AVG DBUS CONGESTED CYCLE: 3.887
WQ ROW_BUFFER_HIT: Channel 0 
  ROW_BUFFER_MISS:       3699
  FULL:      14783
CPU 0 L1I Entangling prefetcher final stats
IP accesses: 2092 82480 10395 / 2598941
IP misses: 100e 40380 1543 / 329727
IP hits: 24ce 93380 1001 / 384693
IP late: 100e 40380 896 / 151074
IP wrong: 207f 81fc0 921 / 295168
miss rate: 0.12687
coverage: 0.538469
coverage_late: 0.749933
accuracy: 0.462965
accuracy_late: 0.644777
discarded: 0
evicts entangled j table: 0
evicts entangled k table: 51950
max bb size: 21
formats: 241 8791 51122 14047 11754 20912 0 
hist_lookups: 55151 56092 38272 28364 20700 14957 11108 8170 6174 4539 3307 2300 1541 922 387 0 0 4135 
hist_lookups_evict: 0 %
hist_lookups_shortlat: 1.61449 %
bb_found_hist: 0 481968 199370 114112 54416 22586 14892 10368 4364 5113 2325 2209 935 449 529 740 483 1192 773 289 0 11 0 0 0 0 0 0 0 0 0 0 0 0 0 0 0 0 0 0 0 0 0 0 0 0 0 0 0 0 0 0 0 0 0 0 0 0 0 0 0 0 0 0 
bb_found_summary: 1927235 917124 2.10139
entangled_found_hist: 0 216893 271510 440798 91609 42277 2010 0 
entangled_found_summary: 2672188 1065097 2.50887
bb_ent_found_hist: 0 834150 329250 234787 116216 43506 31449 20260 11017 8990 4633 6606 2308 1454 574 2755 466 323 3427 577 0 0 0 0 0 0 0 0 0 0 0 0 0 0 0 0 0 0 0 0 0 0 0 0 0 0 0 0 0 0 0 0 0 0 0 0 0 0 0 0 0 0 0 0 
bb_ent_found_summary: 3679516 1652748 2.22631
