WARNING: physical memory size is smaller than virtual memory size.
WARNING: option --warmup_instructions is deprecated. Use --warmup-instructions instead.
WARNING: option --simulation_instructions is deprecated. Use --simulation-instructions instead.

*** ChampSim Multicore Out-of-Order Simulator ***
Warmup Instructions: 25000000
Simulation Instructions: 25000000
Number of CPUs: 1
Page size: 4096

Off-chip DRAM Size: 4 GiB Channels: 1 Width: 64-bit Data Race: 3200 MT/s
Heartbeat CPU 0 instructions: 10000001 cycles: 2500834 heartbeat IPC: 3.999 cumulative IPC: 3.999 (Simulation time: 00 hr 00 min 21 sec)
Heartbeat CPU 0 instructions: 20000000 cycles: 5003121 heartbeat IPC: 3.996 cumulative IPC: 3.998 (Simulation time: 00 hr 00 min 41 sec)
Warmup finished CPU 0 instructions: 25000003 cycles: 6255421 cumulative IPC: 3.997 (Simulation time: 00 hr 00 min 52 sec)
Warmup complete CPU 0 instructions: 25000003 cycles: 6255421 cumulative IPC: 3.997 (Simulation time: 00 hr 00 min 52 sec)
Heartbeat CPU 0 instructions: 30000003 cycles: 9701423 heartbeat IPC: 2.128 cumulative IPC: 1.451 (Simulation time: 00 hr 01 min 10 sec)
Heartbeat CPU 0 instructions: 40000003 cycles: 17290898 heartbeat IPC: 1.318 cumulative IPC: 1.359 (Simulation time: 00 hr 01 min 49 sec)
Heartbeat CPU 0 instructions: 50000002 cycles: 22950085 heartbeat IPC: 1.767 cumulative IPC: 1.497 (Simulation time: 00 hr 02 min 24 sec)
Simulation finished CPU 0 instructions: 25000004 cycles: 16694666 cumulative IPC: 1.497 (Simulation time: 00 hr 02 min 24 sec)
Simulation complete CPU 0 instructions: 25000004 cycles: 16694666 cumulative IPC: 1.497 (Simulation time: 00 hr 02 min 24 sec)

ChampSim completed all CPUs

=== Simulation ===
CPU 0 runs ipc1_public/client_004.champsimtrace.xz
Region of Interest Statistics

CPU 0 cumulative IPC: 1.497 instructions: 25000004 cycles: 16694666
CPU 0 Branch Prediction Accuracy: 90.86% MPKI: 16.4 Average ROB Occupancy at Mispredict: 34.96
Branch type MPKI
BRANCH_DIRECT_JUMP: 0.432
BRANCH_INDIRECT: 3.25
BRANCH_CONDITIONAL: 8.84
BRANCH_DIRECT_CALL: 0.691
BRANCH_INDIRECT_CALL: 1.69
BRANCH_RETURN: 1.5

LLC TOTAL        ACCESS:     227735 HIT:     168672 MISS:      59063
LLC LOAD         ACCESS:     121435 HIT:      91642 MISS:      29793
LLC RFO          ACCESS:      24509 HIT:      10280 MISS:      14229
LLC PREFETCH     ACCESS:      39309 HIT:      26928 MISS:      12381
LLC WRITE        ACCESS:      37822 HIT:      37803 MISS:         19
LLC TRANSLATION  ACCESS:       4660 HIT:       2019 MISS:       2641
LLC PREFETCH REQUESTED:          0 ISSUED:          0 USEFUL:          0 USELESS:          0
LLC AVERAGE MISS LATENCY: 213.1 cycles
cpu0_DTLB TOTAL        ACCESS:    6198034 HIT:    6025706 MISS:     172328
cpu0_DTLB LOAD         ACCESS:    6198034 HIT:    6025706 MISS:     172328
cpu0_DTLB RFO          ACCESS:          0 HIT:          0 MISS:          0
cpu0_DTLB PREFETCH     ACCESS:          0 HIT:          0 MISS:          0
cpu0_DTLB WRITE        ACCESS:          0 HIT:          0 MISS:          0
cpu0_DTLB TRANSLATION  ACCESS:          0 HIT:          0 MISS:          0
cpu0_DTLB PREFETCH REQUESTED:          0 ISSUED:          0 USEFUL:          0 USELESS:          0
cpu0_DTLB AVERAGE MISS LATENCY: 8.149 cycles
cpu0_ITLB TOTAL        ACCESS:    1265381 HIT:    1133276 MISS:     132105
cpu0_ITLB LOAD         ACCESS:    1265381 HIT:    1133276 MISS:     132105
cpu0_ITLB RFO          ACCESS:          0 HIT:          0 MISS:          0
cpu0_ITLB PREFETCH     ACCESS:          0 HIT:          0 MISS:          0
cpu0_ITLB WRITE        ACCESS:          0 HIT:          0 MISS:          0
cpu0_ITLB TRANSLATION  ACCESS:          0 HIT:          0 MISS:          0
cpu0_ITLB PREFETCH REQUESTED:          0 ISSUED:          0 USEFUL:          0 USELESS:          0
cpu0_ITLB AVERAGE MISS LATENCY: 4.312 cycles
cpu0_L1D TOTAL        ACCESS:   11416976 HIT:   10665665 MISS:     751311
cpu0_L1D LOAD         ACCESS:    5199582 HIT:    4888888 MISS:     310694
cpu0_L1D RFO          ACCESS:          0 HIT:          0 MISS:          0
cpu0_L1D PREFETCH     ACCESS:    3618209 HIT:    3341756 MISS:     276453
cpu0_L1D WRITE        ACCESS:    2593242 HIT:    2434568 MISS:     158674
cpu0_L1D TRANSLATION  ACCESS:       5943 HIT:        453 MISS:       5490
cpu0_L1D PREFETCH REQUESTED:    5221462 ISSUED:    3618209 USEFUL:      50462 USELESS:     106757
cpu0_L1D AVERAGE MISS LATENCY: 19.72 cycles
cpu0_L1I TOTAL        ACCESS:    1439923 HIT:    1042587 MISS:     397336
cpu0_L1I LOAD         ACCESS:    1439923 HIT:    1042587 MISS:     397336
cpu0_L1I RFO          ACCESS:          0 HIT:          0 MISS:          0
cpu0_L1I PREFETCH     ACCESS:          0 HIT:          0 MISS:          0
cpu0_L1I WRITE        ACCESS:          0 HIT:          0 MISS:          0
cpu0_L1I TRANSLATION  ACCESS:          0 HIT:          0 MISS:          0
cpu0_L1I PREFETCH REQUESTED:          0 ISSUED:          0 USEFUL:          0 USELESS:          0
cpu0_L1I AVERAGE MISS LATENCY: 18.59 cycles
cpu0_L2C TOTAL        ACCESS:     800882 HIT:     610793 MISS:     190089
cpu0_L2C LOAD         ACCESS:     481688 HIT:     360253 MISS:     121435
cpu0_L2C RFO          ACCESS:      50685 HIT:      26176 MISS:      24509
cpu0_L2C PREFETCH     ACCESS:     157228 HIT:     117919 MISS:      39309
cpu0_L2C WRITE        ACCESS:     105804 HIT:     105628 MISS:        176
cpu0_L2C TRANSLATION  ACCESS:       5477 HIT:        817 MISS:       4660
cpu0_L2C PREFETCH REQUESTED:          0 ISSUED:          0 USEFUL:          0 USELESS:          0
cpu0_L2C AVERAGE MISS LATENCY: 86.5 cycles
cpu0_STLB TOTAL        ACCESS:     176453 HIT:     170837 MISS:       5616
cpu0_STLB LOAD         ACCESS:     176453 HIT:     170837 MISS:       5616
cpu0_STLB RFO          ACCESS:          0 HIT:          0 MISS:          0
cpu0_STLB PREFETCH     ACCESS:          0 HIT:          0 MISS:          0
cpu0_STLB WRITE        ACCESS:          0 HIT:          0 MISS:          0
cpu0_STLB TRANSLATION  ACCESS:          0 HIT:          0 MISS:          0
cpu0_STLB PREFETCH REQUESTED:          0 ISSUED:          0 USEFUL:          0 USELESS:          0
cpu0_STLB AVERAGE MISS LATENCY: 168 cycles

DRAM Statistics

Channel 0 RQ ROW_BUFFER_HIT:      15824
  ROW_BUFFER_MISS:      43214
 AVG DBUS CONGESTED CYCLE: 3.876
WQ ROW_BUFFER_HIT: Channel 0 
  ROW_BUFFER_MISS:       4459
  FULL:      13862
