
*** ChampSim Multicore Out-of-Order Simulator ***

Warmup Instructions: 25000000
Simulation Instructions: 25000000
Number of CPUs: 1
Off-chip DRAM Size: 4 GiB Channels: 1 Width: 64-bit Data Rate: 3200 MT/s

VirtualMemory physical capacity: 8588881920 num_ppages: 2096895
VirtualMemory page size: 4096 log2_page_size: 12

CPU 0 runs ipc1_public/client_001.champsimtrace.xz
Basic BTB sets: 1024 ways: 8 indirect buffer size: 4096 RAS size: 64
cpu0_STLB next line prefetcher
cpu0_L1D next line prefetcher
WARNING: The extended signature CACHE::prefetch_line(ip, base_addr, pf_addr, fill_this_level, prefetch_metadata) is deprecated.
WARNING: Use CACHE::prefetch_line(pf_addr, fill_this_level, prefetch_metadata) instead.
Heartbeat CPU 0 instructions: 10000002 cycles: 2697784 heartbeat IPC: 3.70675 cumulative IPC: 3.70675 (Simulation time: 0 hr 0 min 27 sec) 
Heartbeat CPU 0 instructions: 20000002 cycles: 5630917 heartbeat IPC: 3.40932 cumulative IPC: 3.55182 (Simulation time: 0 hr 0 min 57 sec) 

Warmup complete CPU 0 instructions: 25000001 cycles: 6886548 (Simulation time: 0 hr 1 min 9 sec) 

Heartbeat CPU 0 instructions: 30000003 cycles: 10696765 heartbeat IPC: 1.974 cumulative IPC: 1.31226 (Simulation time: 0 hr 1 min 32 sec) 
Heartbeat CPU 0 instructions: 40000000 cycles: 17857230 heartbeat IPC: 1.39656 cumulative IPC: 1.36728 (Simulation time: 0 hr 2 min 20 sec) 
Heartbeat CPU 0 instructions: 50000001 cycles: 23756086 heartbeat IPC: 1.69524 cumulative IPC: 1.48196 (Simulation time: 0 hr 3 min 0 sec) 
Finished CPU 0 instructions: 25000000 cycles: 16869538 cumulative IPC: 1.48196 (Simulation time: 0 hr 3 min 0 sec) 

ChampSim completed all CPUs

Region of Interest Statistics

CPU 0 cumulative IPC: 1.48196 instructions: 25000000 cycles: 16869538
cpu0_DTLB TOTAL     ACCESS:    5138995  HIT:    5001499  MISS:     137496
cpu0_DTLB LOAD      ACCESS:    3839179  HIT:    3707510  MISS:     131669
cpu0_DTLB RFO       ACCESS:    1299816  HIT:    1293989  MISS:       5827
cpu0_DTLB PREFETCH  ACCESS:          0  HIT:          0  MISS:          0
cpu0_DTLB WRITEBACK ACCESS:          0  HIT:          0  MISS:          0
cpu0_DTLB TRANSLATION ACCESS:          0  HIT:          0  MISS:          0
cpu0_DTLB PREFETCH  REQUESTED:          0  ISSUED:          0  USEFUL:          0  USELESS:          0
cpu0_DTLB AVERAGE MISS LATENCY: 10.1766 cycles
cpu0_ITLB TOTAL     ACCESS:    1578804  HIT:    1550385  MISS:      28419
cpu0_ITLB LOAD      ACCESS:    1578804  HIT:    1550385  MISS:      28419
cpu0_ITLB RFO       ACCESS:          0  HIT:          0  MISS:          0
cpu0_ITLB PREFETCH  ACCESS:          0  HIT:          0  MISS:          0
cpu0_ITLB WRITEBACK ACCESS:          0  HIT:          0  MISS:          0
cpu0_ITLB TRANSLATION ACCESS:          0  HIT:          0  MISS:          0
cpu0_ITLB PREFETCH  REQUESTED:          0  ISSUED:          0  USEFUL:          0  USELESS:          0
cpu0_ITLB AVERAGE MISS LATENCY: 9.94817 cycles
cpu0_L1I TOTAL     ACCESS:    2166317  HIT:    2018694  MISS:     147623
cpu0_L1I LOAD      ACCESS:    2166317  HIT:    2018694  MISS:     147623
cpu0_L1I RFO       ACCESS:          0  HIT:          0  MISS:          0
cpu0_L1I PREFETCH  ACCESS:          0  HIT:          0  MISS:          0
cpu0_L1I WRITEBACK ACCESS:          0  HIT:          0  MISS:          0
cpu0_L1I TRANSLATION ACCESS:          0  HIT:          0  MISS:          0
cpu0_L1I PREFETCH  REQUESTED:          0  ISSUED:          0  USEFUL:          0  USELESS:          0
cpu0_L1I AVERAGE MISS LATENCY: 22.0429 cycles
cpu0_STLB TOTAL     ACCESS:     165915  HIT:     163636  MISS:       2279
cpu0_STLB LOAD      ACCESS:     160088  HIT:     158181  MISS:       1907
cpu0_STLB RFO       ACCESS:       5827  HIT:       5455  MISS:        372
cpu0_STLB PREFETCH  ACCESS:          0  HIT:          0  MISS:          0
cpu0_STLB WRITEBACK ACCESS:          0  HIT:          0  MISS:          0
cpu0_STLB TRANSLATION ACCESS:          0  HIT:          0  MISS:          0
cpu0_STLB PREFETCH  REQUESTED:     160088  ISSUED:          0  USEFUL:          0  USELESS:          0
cpu0_STLB AVERAGE MISS LATENCY: 80.4928 cycles
cpu0_L1D TOTAL     ACCESS:    9566087  HIT:    8845007  MISS:     721080
cpu0_L1D LOAD      ACCESS:    3872043  HIT:    3523290  MISS:     348753
cpu0_L1D RFO       ACCESS:    1988065  HIT:    1947115  MISS:      40950
cpu0_L1D PREFETCH  ACCESS:    3703727  HIT:    3372972  MISS:     330755
cpu0_L1D WRITEBACK ACCESS:          0  HIT:          0  MISS:          0
cpu0_L1D TRANSLATION ACCESS:       2252  HIT:       1630  MISS:        622
cpu0_L1D PREFETCH  REQUESTED:    3913430  ISSUED:    3832718  USEFUL:     195251  USELESS:     151068
cpu0_L1D AVERAGE MISS LATENCY: 53.8172 cycles
cpu0_L2C TOTAL     ACCESS:     970366  HIT:     715956  MISS:     254410
cpu0_L2C LOAD      ACCESS:     481504  HIT:     365066  MISS:     116438
cpu0_L2C RFO       ACCESS:      40225  HIT:      13424  MISS:      26801
cpu0_L2C PREFETCH  ACCESS:     346328  HIT:     235425  MISS:     110903
cpu0_L2C WRITEBACK ACCESS:     101687  HIT:     101490  MISS:        197
cpu0_L2C TRANSLATION ACCESS:        622  HIT:        551  MISS:         71
cpu0_L2C PREFETCH  REQUESTED:          0  ISSUED:          0  USEFUL:          0  USELESS:          0
cpu0_L2C AVERAGE MISS LATENCY: 133.359 cycles
LLC TOTAL     ACCESS:     319312  HIT:     230729  MISS:      88583
LLC LOAD      ACCESS:     116438  HIT:      85281  MISS:      31157
LLC RFO       ACCESS:      26801  HIT:       4665  MISS:      22136
LLC PREFETCH  ACCESS:     110903  HIT:      75738  MISS:      35165
LLC WRITEBACK ACCESS:      65099  HIT:      64999  MISS:        100
LLC TRANSLATION ACCESS:         71  HIT:         46  MISS:         25
LLC PREFETCH  REQUESTED:          0  ISSUED:          0  USEFUL:          0  USELESS:          0
LLC AVERAGE MISS LATENCY: 322.738 cycles

DRAM Statistics
 CHANNEL 0
 RQ ROW_BUFFER_HIT:      18783  ROW_BUFFER_MISS:      69651
 DBUS AVG_CONGESTED_CYCLE:    3.89209
 WQ ROW_BUFFER_HIT:       5592  ROW_BUFFER_MISS:      41903  FULL:          0


CPU 0 Branch Prediction Accuracy: 94.4623% MPKI: 9.58692 Average ROB Occupancy at Mispredict: 182.142
Branch type MPKI
BRANCH_DIRECT_JUMP: 0.00684
BRANCH_INDIRECT: 0.1394
BRANCH_CONDITIONAL: 8.57544
BRANCH_DIRECT_CALL: 0.00968
BRANCH_INDIRECT_CALL: 0.7376
BRANCH_RETURN: 0.11796

