
*** ChampSim Multicore Out-of-Order Simulator ***

Warmup Instructions: 25000000
Simulation Instructions: 25000000
Number of CPUs: 1
Off-chip DRAM Size: 4 GiB Channels: 1 Width: 64-bit Data Rate: 3200 MT/s

VirtualMemory physical capacity: 8588881920 num_ppages: 2096895
VirtualMemory page size: 4096 log2_page_size: 12

CPU 0 runs ipc1_public/client_005.champsimtrace.xz
Basic BTB sets: 1024 ways: 8 indirect buffer size: 4096 RAS size: 64
CPU 0 Entangling TLB prefetcher
cpu0_L1D next line prefetcher
WARNING: The extended signature CACHE::prefetch_line(ip, base_addr, pf_addr, fill_this_level, prefetch_metadata) is deprecated.
WARNING: Use CACHE::prefetch_line(pf_addr, fill_this_level, prefetch_metadata) instead.
Heartbeat CPU 0 instructions: 10000003 cycles: 2533381 heartbeat IPC: 3.9473 cumulative IPC: 3.9473 (Simulation time: 0 hr 0 min 21 sec) 
Heartbeat CPU 0 instructions: 20000003 cycles: 5047802 heartbeat IPC: 3.97706 cumulative IPC: 3.96212 (Simulation time: 0 hr 0 min 42 sec) 

Warmup complete CPU 0 instructions: 25000001 cycles: 6298058 (Simulation time: 0 hr 0 min 54 sec) 

Heartbeat CPU 0 instructions: 30000002 cycles: 9901644 heartbeat IPC: 2.06022 cumulative IPC: 1.38751 (Simulation time: 0 hr 1 min 13 sec) 
Heartbeat CPU 0 instructions: 40000000 cycles: 17333616 heartbeat IPC: 1.34554 cumulative IPC: 1.35924 (Simulation time: 0 hr 1 min 57 sec) 
Heartbeat CPU 0 instructions: 50000001 cycles: 27163237 heartbeat IPC: 1.01733 cumulative IPC: 1.19817 (Simulation time: 0 hr 2 min 51 sec) 
Finished CPU 0 instructions: 25000000 cycles: 20865179 cumulative IPC: 1.19817 (Simulation time: 0 hr 2 min 51 sec) 

ChampSim completed all CPUs

Region of Interest Statistics

CPU 0 cumulative IPC: 1.19817 instructions: 25000000 cycles: 20865179
cpu0_DTLB TOTAL     ACCESS:    4927465  HIT:    4858050  MISS:      69415
cpu0_DTLB LOAD      ACCESS:    2757879  HIT:    2698348  MISS:      59531
cpu0_DTLB RFO       ACCESS:    2169586  HIT:    2159702  MISS:       9884
cpu0_DTLB PREFETCH  ACCESS:          0  HIT:          0  MISS:          0
cpu0_DTLB WRITEBACK ACCESS:          0  HIT:          0  MISS:          0
cpu0_DTLB TRANSLATION ACCESS:          0  HIT:          0  MISS:          0
cpu0_DTLB PREFETCH  REQUESTED:          0  ISSUED:          0  USEFUL:          0  USELESS:          0
cpu0_DTLB AVERAGE MISS LATENCY: 14.5223 cycles
cpu0_ITLB TOTAL     ACCESS:    1746886  HIT:    1711718  MISS:      35168
cpu0_ITLB LOAD      ACCESS:    1746886  HIT:    1711718  MISS:      35168
cpu0_ITLB RFO       ACCESS:          0  HIT:          0  MISS:          0
cpu0_ITLB PREFETCH  ACCESS:          0  HIT:          0  MISS:          0
cpu0_ITLB WRITEBACK ACCESS:          0  HIT:          0  MISS:          0
cpu0_ITLB TRANSLATION ACCESS:          0  HIT:          0  MISS:          0
cpu0_ITLB PREFETCH  REQUESTED:          0  ISSUED:          0  USEFUL:          0  USELESS:          0
cpu0_ITLB AVERAGE MISS LATENCY: 9.19609 cycles
cpu0_L1I TOTAL     ACCESS:    3224069  HIT:    3000159  MISS:     223910
cpu0_L1I LOAD      ACCESS:    3224069  HIT:    3000159  MISS:     223910
cpu0_L1I RFO       ACCESS:          0  HIT:          0  MISS:          0
cpu0_L1I PREFETCH  ACCESS:          0  HIT:          0  MISS:          0
cpu0_L1I WRITEBACK ACCESS:          0  HIT:          0  MISS:          0
cpu0_L1I TRANSLATION ACCESS:          0  HIT:          0  MISS:          0
cpu0_L1I PREFETCH  REQUESTED:          0  ISSUED:          0  USEFUL:          0  USELESS:          0
cpu0_L1I AVERAGE MISS LATENCY: 17.9428 cycles
cpu0_STLB TOTAL     ACCESS:     104583  HIT:     100822  MISS:       3761
cpu0_STLB LOAD      ACCESS:      94699  HIT:      92517  MISS:       2182
cpu0_STLB RFO       ACCESS:       9884  HIT:       8305  MISS:       1579
cpu0_STLB PREFETCH  ACCESS:          0  HIT:          0  MISS:          0
cpu0_STLB WRITEBACK ACCESS:          0  HIT:          0  MISS:          0
cpu0_STLB TRANSLATION ACCESS:          0  HIT:          0  MISS:          0
cpu0_STLB PREFETCH  REQUESTED:     106858  ISSUED:        128  USEFUL:          0  USELESS:          0
cpu0_STLB AVERAGE MISS LATENCY: 103.418 cycles
cpu0_L1D TOTAL     ACCESS:    9672799  HIT:    9397219  MISS:     275580
cpu0_L1D LOAD      ACCESS:    3085078  HIT:    3002365  MISS:      82713
cpu0_L1D RFO       ACCESS:    3555054  HIT:    3446761  MISS:     108293
cpu0_L1D PREFETCH  ACCESS:    3029003  HIT:    2945364  MISS:      83639
cpu0_L1D WRITEBACK ACCESS:          0  HIT:          0  MISS:          0
cpu0_L1D TRANSLATION ACCESS:       3664  HIT:       2729  MISS:        935
cpu0_L1D PREFETCH  REQUESTED:    3101922  ISSUED:    3082656  USEFUL:      65850  USELESS:      27128
cpu0_L1D AVERAGE MISS LATENCY: 153.163 cycles
cpu0_L2C TOTAL     ACCESS:     645015  HIT:     445981  MISS:     199034
cpu0_L2C LOAD      ACCESS:     299993  HIT:     246885  MISS:      53108
cpu0_L2C RFO       ACCESS:     105581  HIT:      13109  MISS:      92472
cpu0_L2C PREFETCH  ACCESS:      92963  HIT:      40215  MISS:      52748
cpu0_L2C WRITEBACK ACCESS:     145543  HIT:     145001  MISS:        542
cpu0_L2C TRANSLATION ACCESS:        935  HIT:        771  MISS:        164
cpu0_L2C PREFETCH  REQUESTED:          0  ISSUED:          0  USEFUL:          0  USELESS:          0
cpu0_L2C AVERAGE MISS LATENCY: 211.498 cycles
LLC TOTAL     ACCESS:     320489  HIT:     155920  MISS:     164569
LLC LOAD      ACCESS:      53108  HIT:      17589  MISS:      35519
LLC RFO       ACCESS:      92472  HIT:       2708  MISS:      89764
LLC PREFETCH  ACCESS:      52748  HIT:      14108  MISS:      38640
LLC WRITEBACK ACCESS:     121997  HIT:     121404  MISS:        593
LLC TRANSLATION ACCESS:        164  HIT:        111  MISS:         53
LLC PREFETCH  REQUESTED:          0  ISSUED:          0  USEFUL:          0  USELESS:          0
LLC AVERAGE MISS LATENCY: 230.462 cycles
CPU 0 TLB Entangling prefetcher final stats
ACCESS:0 HIT:0 MISS:0
IP accesses: 7200 7200000 2070 / 94699
IP misses: 7600 7600000 26 / 2182
IP hits: 0 0 0 / 0
IP late: 683 683000 1 / 2
IP wrong: 0 0 0 / 0
miss rate: 0.0230414
coverage: 0
coverage_late: 0.00091659
accuracy: 0
accuracy_late: 1
discarded: 0
evicts entangled j table: 0
evicts entangled k table: 391
max bb size: 14
formats: 15 453 265 300 132 542 0 
hist_lookups: 2082 1442 292 112 62 39 15 5 5 3 3 1 0 0 0 0 0 3 
hist_lookups_evict: 0 %
hist_lookups_shortlat: 0.0738189 %
bb_found_hist: 0 12642 267 148 69 65 25 22 15 14 28 5 0 3 0 0 
bb_found_summary: 15145 13303 1.13847
entangled_found_hist: 0 9428 19764 4909 3145 47 0 0 
entangled_found_summary: 76498 37293 2.05127
bb_ent_found_hist: 0 7879 626 464 229 119 343 7 17 29 95 3 0 3 0 0 
bb_ent_found_summary: 15560 9814 1.58549

DRAM Statistics
 CHANNEL 0
 RQ ROW_BUFFER_HIT:      52038  ROW_BUFFER_MISS:     111902
 DBUS AVG_CONGESTED_CYCLE:    3.94079
 WQ ROW_BUFFER_HIT:      16243  ROW_BUFFER_MISS:     112655  FULL:          0


CPU 0 Branch Prediction Accuracy: 95.7904% MPKI: 7.73784 Average ROB Occupancy at Mispredict: 174.145
Branch type MPKI
BRANCH_DIRECT_JUMP: 0.01288
BRANCH_INDIRECT: 0.57212
BRANCH_CONDITIONAL: 6.22528
BRANCH_DIRECT_CALL: 0.03524
BRANCH_INDIRECT_CALL: 0.41896
BRANCH_RETURN: 0.47336

