
*** ChampSim Multicore Out-of-Order Simulator ***

Warmup Instructions: 25000000
Simulation Instructions: 25000000
Number of CPUs: 1
Off-chip DRAM Size: 4 GiB Channels: 1 Width: 64-bit Data Rate: 3200 MT/s

VirtualMemory physical capacity: 8588881920 num_ppages: 2096895
VirtualMemory page size: 4096 log2_page_size: 12

CPU 0 runs ipc1_public/client_004.champsimtrace.xz
Basic BTB sets: 1024 ways: 8 indirect buffer size: 4096 RAS size: 64
CPU 0 Entangling prefetcher
cpu0_STLB next line prefetcher
cpu0_L1D next line prefetcher
WARNING: The extended signature CACHE::prefetch_line(ip, base_addr, pf_addr, fill_this_level, prefetch_metadata) is deprecated.
WARNING: Use CACHE::prefetch_line(pf_addr, fill_this_level, prefetch_metadata) instead.
Heartbeat CPU 0 instructions: 10000003 cycles: 2750313 heartbeat IPC: 3.63595 cumulative IPC: 3.63595 (Simulation time: 0 hr 0 min 33 sec) 
Heartbeat CPU 0 instructions: 20000003 cycles: 5374784 heartbeat IPC: 3.81029 cumulative IPC: 3.72108 (Simulation time: 0 hr 1 min 4 sec) 

Warmup complete CPU 0 instructions: 25000002 cycles: 6786516 (Simulation time: 0 hr 1 min 21 sec) 

Heartbeat CPU 0 instructions: 30000004 cycles: 10284760 heartbeat IPC: 2.03667 cumulative IPC: 1.42929 (Simulation time: 0 hr 1 min 44 sec) 
Heartbeat CPU 0 instructions: 40000004 cycles: 18975687 heartbeat IPC: 1.15063 cumulative IPC: 1.2306 (Simulation time: 0 hr 2 min 34 sec) 
Heartbeat CPU 0 instructions: 50000004 cycles: 25924906 heartbeat IPC: 1.43901 cumulative IPC: 1.30628 (Simulation time: 0 hr 3 min 23 sec) 
Finished CPU 0 instructions: 25000002 cycles: 19138390 cumulative IPC: 1.30628 (Simulation time: 0 hr 3 min 23 sec) 

ChampSim completed all CPUs

Region of Interest Statistics

CPU 0 cumulative IPC: 1.30628 instructions: 25000002 cycles: 19138390
cpu0_DTLB TOTAL     ACCESS:    5536341  HIT:    5412311  MISS:     124030
cpu0_DTLB LOAD      ACCESS:    3927532  HIT:    3811669  MISS:     115863
cpu0_DTLB RFO       ACCESS:    1608809  HIT:    1600642  MISS:       8167
cpu0_DTLB PREFETCH  ACCESS:          0  HIT:          0  MISS:          0
cpu0_DTLB WRITEBACK ACCESS:          0  HIT:          0  MISS:          0
cpu0_DTLB TRANSLATION ACCESS:          0  HIT:          0  MISS:          0
cpu0_DTLB PREFETCH  REQUESTED:          0  ISSUED:          0  USEFUL:          0  USELESS:          0
cpu0_DTLB AVERAGE MISS LATENCY: 10.3624 cycles
cpu0_ITLB TOTAL     ACCESS:    1980565  HIT:    1927134  MISS:      53431
cpu0_ITLB LOAD      ACCESS:    1980565  HIT:    1927134  MISS:      53431
cpu0_ITLB RFO       ACCESS:          0  HIT:          0  MISS:          0
cpu0_ITLB PREFETCH  ACCESS:          0  HIT:          0  MISS:          0
cpu0_ITLB WRITEBACK ACCESS:          0  HIT:          0  MISS:          0
cpu0_ITLB TRANSLATION ACCESS:          0  HIT:          0  MISS:          0
cpu0_ITLB PREFETCH  REQUESTED:          0  ISSUED:          0  USEFUL:          0  USELESS:          0
cpu0_ITLB AVERAGE MISS LATENCY: 10.4992 cycles
cpu0_L1I TOTAL     ACCESS:   10349289  HIT:    9829697  MISS:     519592
cpu0_L1I LOAD      ACCESS:    2584793  HIT:    2510308  MISS:      74485
cpu0_L1I RFO       ACCESS:          0  HIT:          0  MISS:          0
cpu0_L1I PREFETCH  ACCESS:    7764496  HIT:    7319389  MISS:     445107
cpu0_L1I WRITEBACK ACCESS:          0  HIT:          0  MISS:          0
cpu0_L1I TRANSLATION ACCESS:          0  HIT:          0  MISS:          0
cpu0_L1I PREFETCH  REQUESTED:   10087945  ISSUED:    7796163  USEFUL:     389132  USELESS:      72621
cpu0_L1I AVERAGE MISS LATENCY: 20.6658 cycles
cpu0_STLB TOTAL     ACCESS:     177461  HIT:     171848  MISS:       5613
cpu0_STLB LOAD      ACCESS:     169294  HIT:     164059  MISS:       5235
cpu0_STLB RFO       ACCESS:       8167  HIT:       7789  MISS:        378
cpu0_STLB PREFETCH  ACCESS:          0  HIT:          0  MISS:          0
cpu0_STLB WRITEBACK ACCESS:          0  HIT:          0  MISS:          0
cpu0_STLB TRANSLATION ACCESS:          0  HIT:          0  MISS:          0
cpu0_STLB PREFETCH  REQUESTED:     169294  ISSUED:          0  USEFUL:          0  USELESS:          0
cpu0_STLB AVERAGE MISS LATENCY: 43.8596 cycles
cpu0_L1D TOTAL     ACCESS:   10693811  HIT:   10275842  MISS:     417969
cpu0_L1D LOAD      ACCESS:    4174218  HIT:    3982908  MISS:     191310
cpu0_L1D RFO       ACCESS:    2445350  HIT:    2396416  MISS:      48934
cpu0_L1D PREFETCH  ACCESS:    4068697  HIT:    3892115  MISS:     176582
cpu0_L1D WRITEBACK ACCESS:          0  HIT:          0  MISS:          0
cpu0_L1D TRANSLATION ACCESS:       5546  HIT:       4403  MISS:       1143
cpu0_L1D PREFETCH  REQUESTED:    4188081  ISSUED:    4139316  USEFUL:     137063  USELESS:      48212
cpu0_L1D AVERAGE MISS LATENCY: 35.5641 cycles
cpu0_L2C TOTAL     ACCESS:    1042622  HIT:     840160  MISS:     202462
cpu0_L2C LOAD      ACCESS:     241733  HIT:     182922  MISS:      58811
cpu0_L2C RFO       ACCESS:      47653  HIT:      23126  MISS:      24527
cpu0_L2C PREFETCH  ACCESS:     646905  HIT:     528424  MISS:     118481
cpu0_L2C WRITEBACK ACCESS:     105188  HIT:     104762  MISS:        426
cpu0_L2C TRANSLATION ACCESS:       1143  HIT:        926  MISS:        217
cpu0_L2C PREFETCH  REQUESTED:          0  ISSUED:          0  USEFUL:          0  USELESS:          0
cpu0_L2C AVERAGE MISS LATENCY: 80.6124 cycles
LLC TOTAL     ACCESS:     241177  HIT:     183611  MISS:      57566
LLC LOAD      ACCESS:      58809  HIT:      36926  MISS:      21883
LLC RFO       ACCESS:      24527  HIT:      10539  MISS:      13988
LLC PREFETCH  ACCESS:     118481  HIT:      96844  MISS:      21637
LLC WRITEBACK ACCESS:      39143  HIT:      39113  MISS:         30
LLC TRANSLATION ACCESS:        217  HIT:        189  MISS:         28
LLC PREFETCH  REQUESTED:          0  ISSUED:          0  USEFUL:          0  USELESS:          0
LLC AVERAGE MISS LATENCY: 209.806 cycles
CPU 0 L1I Entangling prefetcher final stats
IP accesses: fd09 3f4240 16792 / 2587734
IP misses: de49 379240 419 / 77426
IP hits: 0 0 0 / 0
IP late: 8d8b 2362c0 260 / 40156
IP wrong: 207f 81fc0 575 / 168048
miss rate: 0.0299204
coverage: 0
coverage_late: 0.518637
accuracy: 0
accuracy_late: 0.192869
discarded: 0
evicts entangled j table: 0
evicts entangled k table: 14670
max bb size: 24
formats: 98 2869 17384 4608 4216 7408 0 
hist_lookups: 17158 18630 12252 8599 6514 4834 3295 2267 1636 1048 734 428 228 146 103 0 15 1610 
hist_lookups_evict: 0.0188686 %
hist_lookups_shortlat: 2.02523 %
bb_found_hist: 0 557008 260165 180762 85393 42517 24865 20466 9265 5813 5063 2272 1276 278 705 557 668 666 335 122 0 0 1 0 0 0 0 0 0 0 0 0 0 0 0 0 0 0 0 0 0 0 0 0 0 0 0 0 0 0 0 0 0 0 0 0 0 0 0 0 0 0 0 0 
bb_found_summary: 2735823 1198197 2.28328
entangled_found_hist: 0 282482 310379 534583 99210 46306 2357 0 
entangled_found_summary: 3149501 1275317 2.46958
bb_ent_found_hist: 0 986697 406268 267841 136633 71594 35936 26001 15399 7829 8167 5191 1770 1064 588 1104 675 1158 2798 247 0 0 0 0 37 0 0 0 0 0 0 0 0 0 0 0 0 0 0 0 0 0 0 0 0 0 0 0 0 0 0 0 0 0 0 0 0 0 0 0 0 0 0 0 
bb_ent_found_summary: 4383600 1976997 2.2173

DRAM Statistics
 CHANNEL 0
 RQ ROW_BUFFER_HIT:      10431  ROW_BUFFER_MISS:      47097
 DBUS AVG_CONGESTED_CYCLE:    3.83611
 WQ ROW_BUFFER_HIT:       4301  ROW_BUFFER_MISS:      14128  FULL:          0


CPU 0 Branch Prediction Accuracy: 91.0499% MPKI: 16.0574 Average ROB Occupancy at Mispredict: 132.151
Branch type MPKI
BRANCH_DIRECT_JUMP: 0.33756
BRANCH_INDIRECT: 3.23968
BRANCH_CONDITIONAL: 9.1052
BRANCH_DIRECT_CALL: 0.54464
BRANCH_INDIRECT_CALL: 1.66768
BRANCH_RETURN: 1.16264

