WARNING: physical memory size is smaller than virtual memory size.
WARNING: option --warmup_instructions is deprecated. Use --warmup-instructions instead.
WARNING: option --simulation_instructions is deprecated. Use --simulation-instructions instead.

*** ChampSim Multicore Out-of-Order Simulator ***
Warmup Instructions: 25000000
Simulation Instructions: 25000000
Number of CPUs: 1
Page size: 4096

CPU 0 Entangling prefetcher
Off-chip DRAM Size: 4 GiB Channels: 1 Width: 64-bit Data Race: 3200 MT/s
Heartbeat CPU 0 instructions: 10000002 cycles: 2505822 heartbeat IPC: 3.991 cumulative IPC: 3.991 (Simulation time: 00 hr 00 min 22 sec)
Heartbeat CPU 0 instructions: 20000000 cycles: 5007263 heartbeat IPC: 3.998 cumulative IPC: 3.994 (Simulation time: 00 hr 00 min 45 sec)
Warmup finished CPU 0 instructions: 25000000 cycles: 6259339 cumulative IPC: 3.994 (Simulation time: 00 hr 00 min 58 sec)
Warmup complete CPU 0 instructions: 25000000 cycles: 6259339 cumulative IPC: 3.994 (Simulation time: 00 hr 00 min 58 sec)
Heartbeat CPU 0 instructions: 30000002 cycles: 9041265 heartbeat IPC: 2.479 cumulative IPC: 1.797 (Simulation time: 00 hr 01 min 17 sec)
Heartbeat CPU 0 instructions: 40000002 cycles: 13463446 heartbeat IPC: 2.261 cumulative IPC: 2.082 (Simulation time: 00 hr 01 min 52 sec)
Heartbeat CPU 0 instructions: 50000002 cycles: 17673504 heartbeat IPC: 2.375 cumulative IPC: 2.19 (Simulation time: 00 hr 02 min 29 sec)
Simulation finished CPU 0 instructions: 25000002 cycles: 11414166 cumulative IPC: 2.19 (Simulation time: 00 hr 02 min 29 sec)
Simulation complete CPU 0 instructions: 25000002 cycles: 11414166 cumulative IPC: 2.19 (Simulation time: 00 hr 02 min 29 sec)

ChampSim completed all CPUs

=== Simulation ===
CPU 0 runs ipc1_public/client_001.champsimtrace.xz
Region of Interest Statistics

CPU 0 cumulative IPC: 2.19 instructions: 25000002 cycles: 11414166
CPU 0 Branch Prediction Accuracy: 97.46% MPKI: 4.395 Average ROB Occupancy at Mispredict: 130.8
Branch type MPKI
BRANCH_DIRECT_JUMP: 0.0076
BRANCH_INDIRECT: 0.14
BRANCH_CONDITIONAL: 3.37
BRANCH_DIRECT_CALL: 0.0103
BRANCH_INDIRECT_CALL: 0.738
BRANCH_RETURN: 0.126

LLC TOTAL        ACCESS:     294212 HIT:     206818 MISS:      87394
LLC LOAD         ACCESS:     120029 HIT:      87306 MISS:      32723
LLC RFO          ACCESS:      25671 HIT:       4504 MISS:      21167
LLC PREFETCH     ACCESS:      83800 HIT:      51648 MISS:      32152
LLC WRITE        ACCESS:      63224 HIT:      63096 MISS:        128
LLC TRANSLATION  ACCESS:       1488 HIT:        264 MISS:       1224
LLC PREFETCH REQUESTED:          0 ISSUED:          0 USEFUL:          0 USELESS:          0
LLC AVERAGE MISS LATENCY: 437.4 cycles
cpu0_DTLB TOTAL        ACCESS:    5359078 HIT:    5154034 MISS:     205044
cpu0_DTLB LOAD         ACCESS:    5359078 HIT:    5154034 MISS:     205044
cpu0_DTLB RFO          ACCESS:          0 HIT:          0 MISS:          0
cpu0_DTLB PREFETCH     ACCESS:          0 HIT:          0 MISS:          0
cpu0_DTLB WRITE        ACCESS:          0 HIT:          0 MISS:          0
cpu0_DTLB TRANSLATION  ACCESS:          0 HIT:          0 MISS:          0
cpu0_DTLB PREFETCH REQUESTED:          0 ISSUED:          0 USEFUL:          0 USELESS:          0
cpu0_DTLB AVERAGE MISS LATENCY: 7.235 cycles
cpu0_ITLB TOTAL        ACCESS:    2330127 HIT:    2225163 MISS:     104964
cpu0_ITLB LOAD         ACCESS:    2330127 HIT:    2225163 MISS:     104964
cpu0_ITLB RFO          ACCESS:          0 HIT:          0 MISS:          0
cpu0_ITLB PREFETCH     ACCESS:          0 HIT:          0 MISS:          0
cpu0_ITLB WRITE        ACCESS:          0 HIT:          0 MISS:          0
cpu0_ITLB TRANSLATION  ACCESS:          0 HIT:          0 MISS:          0
cpu0_ITLB PREFETCH REQUESTED:          0 ISSUED:          0 USEFUL:          0 USELESS:          0
cpu0_ITLB AVERAGE MISS LATENCY: 4.709 cycles
cpu0_L1D TOTAL        ACCESS:    9259817 HIT:    8215452 MISS:    1044365
cpu0_L1D LOAD         ACCESS:    4663190 HIT:    4055208 MISS:     607982
cpu0_L1D RFO          ACCESS:          0 HIT:          0 MISS:          0
cpu0_L1D PREFETCH     ACCESS:    2487483 HIT:    2199753 MISS:     287730
cpu0_L1D WRITE        ACCESS:    2106696 HIT:    1960083 MISS:     146613
cpu0_L1D TRANSLATION  ACCESS:       2448 HIT:        408 MISS:       2040
cpu0_L1D PREFETCH REQUESTED:    4854354 ISSUED:    2487481 USEFUL:      48373 USELESS:      85527
cpu0_L1D AVERAGE MISS LATENCY: 40.14 cycles
cpu0_L1I TOTAL        ACCESS:    3401577 HIT:    3151327 MISS:     250250
cpu0_L1I LOAD         ACCESS:    1263513 HIT:    1199350 MISS:      64163
cpu0_L1I RFO          ACCESS:          0 HIT:          0 MISS:          0
cpu0_L1I PREFETCH     ACCESS:    2138064 HIT:    1951977 MISS:     186087
cpu0_L1I WRITE        ACCESS:          0 HIT:          0 MISS:          0
cpu0_L1I TRANSLATION  ACCESS:          0 HIT:          0 MISS:          0
cpu0_L1I PREFETCH REQUESTED:    5017674 ISSUED:    2138064 USEFUL:     136756 USELESS:      41067
cpu0_L1I AVERAGE MISS LATENCY: 20.66 cycles
cpu0_L2C TOTAL        ACCESS:     864951 HIT:     633834 MISS:     231117
cpu0_L2C LOAD         ACCESS:     408717 HIT:     288687 MISS:     120030
cpu0_L2C RFO          ACCESS:      41302 HIT:      15631 MISS:      25671
cpu0_L2C PREFETCH     ACCESS:     311774 HIT:     227973 MISS:      83801
cpu0_L2C WRITE        ACCESS:     101129 HIT:     101002 MISS:        127
cpu0_L2C TRANSLATION  ACCESS:       2029 HIT:        541 MISS:       1488
cpu0_L2C PREFETCH REQUESTED:          0 ISSUED:          0 USEFUL:          0 USELESS:          0
cpu0_L2C AVERAGE MISS LATENCY: 185.8 cycles
cpu0_STLB TOTAL        ACCESS:     188146 HIT:     185808 MISS:       2338
cpu0_STLB LOAD         ACCESS:     188146 HIT:     185808 MISS:       2338
cpu0_STLB RFO          ACCESS:          0 HIT:          0 MISS:          0
cpu0_STLB PREFETCH     ACCESS:          0 HIT:          0 MISS:          0
cpu0_STLB WRITE        ACCESS:          0 HIT:          0 MISS:          0
cpu0_STLB TRANSLATION  ACCESS:          0 HIT:          0 MISS:          0
cpu0_STLB PREFETCH REQUESTED:          0 ISSUED:          0 USEFUL:          0 USELESS:          0
cpu0_STLB AVERAGE MISS LATENCY: 400.6 cycles

DRAM Statistics

Channel 0 RQ ROW_BUFFER_HIT:      23601
  ROW_BUFFER_MISS:      63644
 AVG DBUS CONGESTED CYCLE: 3.947
WQ ROW_BUFFER_HIT: Channel 0 
  ROW_BUFFER_MISS:       5238
  FULL:      41391
CPU 0 L1I Entangling prefetcher final stats
IP accesses: c64e 319380 43949 / 3139618
IP misses: 1388 4e200 968 / 133480
IP hits: 2ffb bfec0 1436 / 298937
IP late: 1388 4e200 477 / 60597
IP wrong: f915 3e4540 1000 / 92788
miss rate: 0.0425148
coverage: 0.691317
coverage_late: 0.831453
accuracy: 0.660895
accuracy_late: 0.794863
discarded: 0
evicts entangled j table: 0
evicts entangled k table: 15768
max bb size: 28
formats: 25 3411 14915 2745 950 2936 0 
hist_lookups: 12813 14517 10531 8287 6304 5135 4004 3069 2372 1920 1525 1138 842 502 221 0 0 1572 
hist_lookups_evict: 0 %
hist_lookups_shortlat: 2.10296 %
bb_found_hist: 0 436379 216921 134862 78726 44522 37940 25786 16633 3937 5446 7651 11947 11148 8285 30 669 20 0 0 0 0 0 419 0 0 0 0 460 0 0 0 0 0 0 0 0 0 0 0 0 0 0 0 0 0 0 0 0 0 0 0 0 0 0 0 0 0 0 0 0 0 0 0 
bb_found_summary: 2965870 1041781 2.84693
entangled_found_hist: 0 153483 259740 458358 23182 1937 35 0 
entangled_found_summary: 2150660 896735 2.39833
bb_ent_found_hist: 0 579092 285338 252382 160493 108926 53174 39584 30810 6591 33272 394 29405 8945 22592 45 1211 10 0 0 0 0 0 184 0 0 0 0 594 0 0 0 0 0 0 0 0 0 0 0 0 0 0 0 0 0 0 0 0 0 0 0 0 0 0 0 0 0 0 0 0 0 0 0 
bb_ent_found_summary: 5159019 1613042 3.19832
