WARNING: physical memory size is smaller than virtual memory size.
WARNING: option --warmup_instructions is deprecated. Use --warmup-instructions instead.
WARNING: option --simulation_instructions is deprecated. Use --simulation-instructions instead.

*** ChampSim Multicore Out-of-Order Simulator ***
Warmup Instructions: 25000000
Simulation Instructions: 25000000
Number of CPUs: 1
Page size: 4096

CPU 0 Entangling prefetcher
Off-chip DRAM Size: 4 GiB Channels: 1 Width: 64-bit Data Race: 3200 MT/s
Heartbeat CPU 0 instructions: 10000003 cycles: 2502417 heartbeat IPC: 3.996 cumulative IPC: 3.996 (Simulation time: 00 hr 00 min 25 sec)
Heartbeat CPU 0 instructions: 20000001 cycles: 5006518 heartbeat IPC: 3.993 cumulative IPC: 3.995 (Simulation time: 00 hr 00 min 51 sec)
Warmup finished CPU 0 instructions: 25000002 cycles: 6257505 cumulative IPC: 3.995 (Simulation time: 00 hr 01 min 05 sec)
Warmup complete CPU 0 instructions: 25000002 cycles: 6257505 cumulative IPC: 3.995 (Simulation time: 00 hr 01 min 05 sec)
Heartbeat CPU 0 instructions: 30000002 cycles: 8418526 heartbeat IPC: 2.931 cumulative IPC: 2.314 (Simulation time: 00 hr 01 min 22 sec)
Heartbeat CPU 0 instructions: 40000000 cycles: 12273981 heartbeat IPC: 2.594 cumulative IPC: 2.493 (Simulation time: 00 hr 01 min 57 sec)
Heartbeat CPU 0 instructions: 50000002 cycles: 15895086 heartbeat IPC: 2.762 cumulative IPC: 2.594 (Simulation time: 00 hr 02 min 31 sec)
Simulation finished CPU 0 instructions: 25000000 cycles: 9637582 cumulative IPC: 2.594 (Simulation time: 00 hr 02 min 31 sec)
Simulation complete CPU 0 instructions: 25000000 cycles: 9637582 cumulative IPC: 2.594 (Simulation time: 00 hr 02 min 31 sec)

ChampSim completed all CPUs

=== Simulation ===
CPU 0 runs ipc1_public/client_003.champsimtrace.xz
Region of Interest Statistics

CPU 0 cumulative IPC: 2.594 instructions: 25000000 cycles: 9637582
CPU 0 Branch Prediction Accuracy: 97.36% MPKI: 4.801 Average ROB Occupancy at Mispredict: 72.52
Branch type MPKI
BRANCH_DIRECT_JUMP: 0.0576
BRANCH_INDIRECT: 0.729
BRANCH_CONDITIONAL: 3.24
BRANCH_DIRECT_CALL: 0.127
BRANCH_INDIRECT_CALL: 0.393
BRANCH_RETURN: 0.254

LLC TOTAL        ACCESS:     231287 HIT:     182481 MISS:      48806
LLC LOAD         ACCESS:      30341 HIT:      23635 MISS:       6706
LLC RFO          ACCESS:      63305 HIT:      34829 MISS:      28476
LLC PREFETCH     ACCESS:      54136 HIT:      41030 MISS:      13106
LLC WRITE        ACCESS:      82978 HIT:      82808 MISS:        170
LLC TRANSLATION  ACCESS:        527 HIT:        179 MISS:        348
LLC PREFETCH REQUESTED:          0 ISSUED:          0 USEFUL:          0 USELESS:          0
LLC AVERAGE MISS LATENCY: 255 cycles
cpu0_DTLB TOTAL        ACCESS:    5638518 HIT:    5563068 MISS:      75450
cpu0_DTLB LOAD         ACCESS:    5638518 HIT:    5563068 MISS:      75450
cpu0_DTLB RFO          ACCESS:          0 HIT:          0 MISS:          0
cpu0_DTLB PREFETCH     ACCESS:          0 HIT:          0 MISS:          0
cpu0_DTLB WRITE        ACCESS:          0 HIT:          0 MISS:          0
cpu0_DTLB TRANSLATION  ACCESS:          0 HIT:          0 MISS:          0
cpu0_DTLB PREFETCH REQUESTED:          0 ISSUED:          0 USEFUL:          0 USELESS:          0
cpu0_DTLB AVERAGE MISS LATENCY: 6.505 cycles
cpu0_ITLB TOTAL        ACCESS:    5136770 HIT:    5000167 MISS:     136603
cpu0_ITLB LOAD         ACCESS:    5136770 HIT:    5000167 MISS:     136603
cpu0_ITLB RFO          ACCESS:          0 HIT:          0 MISS:          0
cpu0_ITLB PREFETCH     ACCESS:          0 HIT:          0 MISS:          0
cpu0_ITLB WRITE        ACCESS:          0 HIT:          0 MISS:          0
cpu0_ITLB TRANSLATION  ACCESS:          0 HIT:          0 MISS:          0
cpu0_ITLB PREFETCH REQUESTED:          0 ISSUED:          0 USEFUL:          0 USELESS:          0
cpu0_ITLB AVERAGE MISS LATENCY: 3.823 cycles
cpu0_L1D TOTAL        ACCESS:   10220011 HIT:    9661362 MISS:     558649
cpu0_L1D LOAD         ACCESS:    3883693 HIT:    3770173 MISS:     113520
cpu0_L1D RFO          ACCESS:          0 HIT:          0 MISS:          0
cpu0_L1D PREFETCH     ACCESS:    2441629 HIT:    2325797 MISS:     115832
cpu0_L1D WRITE        ACCESS:    3893794 HIT:    3565336 MISS:     328458
cpu0_L1D TRANSLATION  ACCESS:        895 HIT:         56 MISS:        839
cpu0_L1D PREFETCH REQUESTED:    3892807 ISSUED:    2441626 USEFUL:      23278 USELESS:      40559
cpu0_L1D AVERAGE MISS LATENCY: 23.01 cycles
cpu0_L1I TOTAL        ACCESS:    7546297 HIT:    6955349 MISS:     590948
cpu0_L1I LOAD         ACCESS:    2362827 HIT:    2189224 MISS:     173603
cpu0_L1I RFO          ACCESS:          0 HIT:          0 MISS:          0
cpu0_L1I PREFETCH     ACCESS:    5183470 HIT:    4766125 MISS:     417345
cpu0_L1I WRITE        ACCESS:          0 HIT:          0 MISS:          0
cpu0_L1I TRANSLATION  ACCESS:          0 HIT:          0 MISS:          0
cpu0_L1I PREFETCH REQUESTED:   12596533 ISSUED:    5183481 USEFUL:     212610 USELESS:     182311
cpu0_L1I AVERAGE MISS LATENCY: 14.43 cycles
cpu0_L2C TOTAL        ACCESS:     820314 HIT:     671307 MISS:     149007
cpu0_L2C LOAD         ACCESS:     172571 HIT:     142230 MISS:      30341
cpu0_L2C RFO          ACCESS:      81017 HIT:      17712 MISS:      63305
cpu0_L2C PREFETCH     ACCESS:     458847 HIT:     404711 MISS:      54136
cpu0_L2C WRITE        ACCESS:     107041 HIT:     106343 MISS:        698
cpu0_L2C TRANSLATION  ACCESS:        838 HIT:        311 MISS:        527
cpu0_L2C PREFETCH REQUESTED:          0 ISSUED:          0 USEFUL:          0 USELESS:          0
cpu0_L2C AVERAGE MISS LATENCY: 103.8 cycles
cpu0_STLB TOTAL        ACCESS:     125530 HIT:     124672 MISS:        858
cpu0_STLB LOAD         ACCESS:     125530 HIT:     124672 MISS:        858
cpu0_STLB RFO          ACCESS:          0 HIT:          0 MISS:          0
cpu0_STLB PREFETCH     ACCESS:          0 HIT:          0 MISS:          0
cpu0_STLB WRITE        ACCESS:          0 HIT:          0 MISS:          0
cpu0_STLB TRANSLATION  ACCESS:          0 HIT:          0 MISS:          0
cpu0_STLB PREFETCH REQUESTED:          0 ISSUED:          0 USEFUL:          0 USELESS:          0
cpu0_STLB AVERAGE MISS LATENCY: 255.7 cycles

DRAM Statistics

Channel 0 RQ ROW_BUFFER_HIT:      16382
  ROW_BUFFER_MISS:      32230
 AVG DBUS CONGESTED CYCLE: 3.947
WQ ROW_BUFFER_HIT: Channel 0 
  ROW_BUFFER_MISS:       4303
  FULL:      28505
CPU 0 L1I Entangling prefetcher final stats
IP accesses: 260f 983c0 52039 / 5113747
IP misses: 260b 982c0 3561 / 423421
IP hits: 74cb 1d32c0 2029 / 475595
IP late: 7acc 1eb300 2077 / 221110
IP wrong: a09c 282700 2030 / 377339
miss rate: 0.0828006
coverage: 0.529018
coverage_late: 0.774964
accuracy: 0.442808
accuracy_late: 0.648675
discarded: 0
evicts entangled j table: 0
evicts entangled k table: 68568
max bb size: 28
formats: 9882 2621 52973 17016 8041 23581 0 
hist_lookups: 70659 66634 47947 37965 28939 21082 15086 10550 7407 4982 3483 2425 1566 885 406 0 0 5545 
hist_lookups_evict: 0 %
hist_lookups_shortlat: 1.70322 %
bb_found_hist: 0 1388707 654172 299534 101914 55013 42644 25533 29340 3450 8330 5504 924 27 0 2 0 0 0 0 0 0 0 0 0 0 0 0 0 0 0 0 0 0 0 0 0 0 0 0 0 0 0 0 0 0 0 0 0 0 0 0 0 0 0 0 0 0 0 0 0 0 0 0 
bb_found_summary: 5134052 2615094 1.96324
entangled_found_hist: 0 476064 565211 1371979 280125 42394 26420 0 
entangled_found_summary: 7213413 2762193 2.61149
bb_ent_found_hist: 0 2596631 1268612 872595 325649 226025 91784 81924 29609 18239 39899 15711 5034 58 0 12 0 0 0 0 0 0 0 0 1 0 0 0 11 0 0 0 0 0 0 0 0 0 0 0 0 0 0 0 0 0 0 0 0 0 0 0 0 0 0 0 0 0 0 0 0 0 0 0 
bb_ent_found_summary: 12343041 5571794 2.21528
