
*** ChampSim Multicore Out-of-Order Simulator ***

Warmup Instructions: 25000000
Simulation Instructions: 25000000
Number of CPUs: 1
Off-chip DRAM Size: 4 GiB Channels: 1 Width: 64-bit Data Rate: 3200 MT/s

VirtualMemory physical capacity: 8588881920 num_ppages: 2096895
VirtualMemory page size: 4096 log2_page_size: 12

CPU 0 runs ipc1_public/client_001.champsimtrace.xz
Basic BTB sets: 1024 ways: 8 indirect buffer size: 4096 RAS size: 64
CPU 0 Entangling prefetcher
CPU 0 Entangling TLB prefetcher
cpu0_L1D next line prefetcher
WARNING: The extended signature CACHE::prefetch_line(ip, base_addr, pf_addr, fill_this_level, prefetch_metadata) is deprecated.
WARNING: Use CACHE::prefetch_line(pf_addr, fill_this_level, prefetch_metadata) instead.
Heartbeat CPU 0 instructions: 10000002 cycles: 2692608 heartbeat IPC: 3.71387 cumulative IPC: 3.71387 (Simulation time: 0 hr 0 min 29 sec) 
Heartbeat CPU 0 instructions: 20000003 cycles: 5622233 heartbeat IPC: 3.41341 cumulative IPC: 3.55731 (Simulation time: 0 hr 1 min 1 sec) 

Warmup complete CPU 0 instructions: 25000003 cycles: 6874133 (Simulation time: 0 hr 1 min 14 sec) 

Heartbeat CPU 0 instructions: 30000003 cycles: 10641077 heartbeat IPC: 1.99249 cumulative IPC: 1.32734 (Simulation time: 0 hr 1 min 36 sec) 
Heartbeat CPU 0 instructions: 40000000 cycles: 17805892 heartbeat IPC: 1.39571 cumulative IPC: 1.37215 (Simulation time: 0 hr 2 min 20 sec) 
Heartbeat CPU 0 instructions: 50000001 cycles: 23455605 heartbeat IPC: 1.77 cumulative IPC: 1.50771 (Simulation time: 0 hr 2 min 59 sec) 
Finished CPU 0 instructions: 25000003 cycles: 16581473 cumulative IPC: 1.50771 (Simulation time: 0 hr 2 min 59 sec) 

ChampSim completed all CPUs

Region of Interest Statistics

CPU 0 cumulative IPC: 1.50771 instructions: 25000003 cycles: 16581473
cpu0_DTLB TOTAL     ACCESS:    5111282  HIT:    4973713  MISS:     137569
cpu0_DTLB LOAD      ACCESS:    3816372  HIT:    3684584  MISS:     131788
cpu0_DTLB RFO       ACCESS:    1294910  HIT:    1289129  MISS:       5781
cpu0_DTLB PREFETCH  ACCESS:          0  HIT:          0  MISS:          0
cpu0_DTLB WRITEBACK ACCESS:          0  HIT:          0  MISS:          0
cpu0_DTLB TRANSLATION ACCESS:          0  HIT:          0  MISS:          0
cpu0_DTLB PREFETCH  REQUESTED:          0  ISSUED:          0  USEFUL:          0  USELESS:          0
cpu0_DTLB AVERAGE MISS LATENCY: 10.1911 cycles
cpu0_ITLB TOTAL     ACCESS:    1573333  HIT:    1544914  MISS:      28419
cpu0_ITLB LOAD      ACCESS:    1573333  HIT:    1544914  MISS:      28419
cpu0_ITLB RFO       ACCESS:          0  HIT:          0  MISS:          0
cpu0_ITLB PREFETCH  ACCESS:          0  HIT:          0  MISS:          0
cpu0_ITLB WRITEBACK ACCESS:          0  HIT:          0  MISS:          0
cpu0_ITLB TRANSLATION ACCESS:          0  HIT:          0  MISS:          0
cpu0_ITLB PREFETCH  REQUESTED:          0  ISSUED:          0  USEFUL:          0  USELESS:          0
cpu0_ITLB AVERAGE MISS LATENCY: 10.0617 cycles
cpu0_L1I TOTAL     ACCESS:    8250600  HIT:    8040593  MISS:     210007
cpu0_L1I LOAD      ACCESS:    2173967  HIT:    2161839  MISS:      12128
cpu0_L1I RFO       ACCESS:          0  HIT:          0  MISS:          0
cpu0_L1I PREFETCH  ACCESS:    6076633  HIT:    5878754  MISS:     197879
cpu0_L1I WRITEBACK ACCESS:          0  HIT:          0  MISS:          0
cpu0_L1I TRANSLATION ACCESS:          0  HIT:          0  MISS:          0
cpu0_L1I PREFETCH  REQUESTED:    7560955  ISSUED:    6084088  USEFUL:     187277  USELESS:      15526
cpu0_L1I AVERAGE MISS LATENCY: 21.3491 cycles
cpu0_STLB TOTAL     ACCESS:     165988  HIT:     163708  MISS:       2280
cpu0_STLB LOAD      ACCESS:     160207  HIT:     158299  MISS:       1908
cpu0_STLB RFO       ACCESS:       5781  HIT:       5409  MISS:        372
cpu0_STLB PREFETCH  ACCESS:          0  HIT:          0  MISS:          0
cpu0_STLB WRITEBACK ACCESS:          0  HIT:          0  MISS:          0
cpu0_STLB TRANSLATION ACCESS:          0  HIT:          0  MISS:          0
cpu0_STLB PREFETCH  REQUESTED:     185893  ISSUED:          0  USEFUL:          0  USELESS:          0
cpu0_STLB AVERAGE MISS LATENCY: 82.4548 cycles
cpu0_L1D TOTAL     ACCESS:    9509759  HIT:    8789935  MISS:     719824
cpu0_L1D LOAD      ACCESS:    3846498  HIT:    3496094  MISS:     350404
cpu0_L1D RFO       ACCESS:    1988286  HIT:    1947366  MISS:      40920
cpu0_L1D PREFETCH  ACCESS:    3672721  HIT:    3344842  MISS:     327879
cpu0_L1D WRITEBACK ACCESS:          0  HIT:          0  MISS:          0
cpu0_L1D TRANSLATION ACCESS:       2254  HIT:       1633  MISS:        621
cpu0_L1D PREFETCH  REQUESTED:    3888964  ISSUED:    3804548  USEFUL:     193463  USELESS:     150885
cpu0_L1D AVERAGE MISS LATENCY: 56.505 cycles
cpu0_L2C TOTAL     ACCESS:    1031429  HIT:     763857  MISS:     267572
cpu0_L2C LOAD      ACCESS:     341845  HIT:     226433  MISS:     115412
cpu0_L2C RFO       ACCESS:      40197  HIT:      13928  MISS:      26269
cpu0_L2C PREFETCH  ACCESS:     547129  HIT:     421451  MISS:     125678
cpu0_L2C WRITEBACK ACCESS:     101637  HIT:     101489  MISS:        148
cpu0_L2C TRANSLATION ACCESS:        621  HIT:        556  MISS:         65
cpu0_L2C PREFETCH  REQUESTED:          0  ISSUED:          0  USEFUL:          0  USELESS:          0
cpu0_L2C AVERAGE MISS LATENCY: 138.84 cycles
LLC TOTAL     ACCESS:     332189  HIT:     238154  MISS:      94035
LLC LOAD      ACCESS:     115411  HIT:      84186  MISS:      31225
LLC RFO       ACCESS:      26268  HIT:       4363  MISS:      21905
LLC PREFETCH  ACCESS:     125677  HIT:      84983  MISS:      40694
LLC WRITEBACK ACCESS:      64768  HIT:      64579  MISS:        189
LLC TRANSLATION ACCESS:         65  HIT:         43  MISS:         22
LLC PREFETCH  REQUESTED:          0  ISSUED:          0  USEFUL:          0  USELESS:          0
LLC AVERAGE MISS LATENCY: 335.338 cycles
CPU 0 L1I Entangling prefetcher final stats
IP accesses: fc98 3f2600 17985 / 2174425
IP misses: 85af 216bc0 212 / 12586
IP hits: 0 0 0 / 0
IP late: 85af 216bc0 212 / 7844
IP wrong: 36ee dbb80 557 / 40117
miss rate: 0.0057882
coverage: 0
coverage_late: 0.623232
accuracy: 0
accuracy_late: 0.16355
discarded: 0
evicts entangled j table: 0
evicts entangled k table: 3573
max bb size: 32
formats: 0 5270 1 0 0 518 0 
hist_lookups: 2933 3303 2640 1776 1184 746 501 346 188 127 100 82 65 48 25 0 0 433 
hist_lookups_evict: 0 %
hist_lookups_shortlat: 2.98682 %
bb_found_hist: 0 408483 226557 166492 95567 44418 39196 43796 21394 7734 20732 4257 4164 6068 3344 70 206 0 0 0 0 0 0 209 0 0 0 0 0 0 0 0 209 0 0 0 0 0 0 0 0 0 0 0 0 0 0 0 0 0 0 0 0 0 0 0 0 0 0 0 0 0 0 0 
bb_found_summary: 3193593 1092896 2.92214
entangled_found_hist: 0 316225 620784 2493 2049 9 43 0 
entangled_found_summary: 1573771 941603 1.67137
bb_ent_found_hist: 0 366763 229551 133871 106454 51251 27081 14227 24196 3064 18514 917 11196 361 4585 13 366 0 0 0 0 0 0 0 0 0 0 0 0 0 0 0 1925 0 0 0 0 0 0 0 0 0 0 0 0 0 0 0 0 0 0 0 0 0 0 0 0 0 0 0 0 0 0 0 
bb_ent_found_summary: 2858881 994335 2.87517
CPU 0 TLB Entangling prefetcher final stats
ACCESS:0 HIT:0 MISS:0
IP accesses: 5550 5550000 2407 / 160207
IP misses: 18 18000 10 / 1908
IP hits: 0 0 0 / 0
IP late: 0 0 0 / 0
IP wrong: 0 0 0 / 0
miss rate: 0.0119096
coverage: 0
coverage_late: 0
accuracy: -nan
accuracy_late: -nan
discarded: 0
evicts entangled j table: 0
evicts entangled k table: 499
max bb size: 26
formats: 345 109 595 305 142 187 0 
hist_lookups: 2228 1466 296 124 60 31 27 26 26 16 13 7 5 1 0 0 9 56 
hist_lookups_evict: 0.204965 %
hist_lookups_shortlat: 1.27534 %
bb_found_hist: 0 24942 2640 788 305 271 102 142 95 8 0 0 0 0 0 0 
bb_found_summary: 37599 29293 1.28355
entangled_found_hist: 0 40007 14519 17731 1192 326 0 0 
entangled_found_summary: 128636 73775 1.74363
bb_ent_found_hist: 0 13033 1009 774 257 0 82 6 77 13 0 0 0 0 0 0 
bb_ent_found_summary: 19668 15251 1.28962

DRAM Statistics
 CHANNEL 0
 RQ ROW_BUFFER_HIT:      20502  ROW_BUFFER_MISS:      73286
 DBUS AVG_CONGESTED_CYCLE:    3.88805
 WQ ROW_BUFFER_HIT:       5546  ROW_BUFFER_MISS:      41962  FULL:          0


CPU 0 Branch Prediction Accuracy: 94.4623% MPKI: 9.58692 Average ROB Occupancy at Mispredict: 189.345
Branch type MPKI
BRANCH_DIRECT_JUMP: 0.00684
BRANCH_INDIRECT: 0.1394
BRANCH_CONDITIONAL: 8.57544
BRANCH_DIRECT_CALL: 0.00968
BRANCH_INDIRECT_CALL: 0.7376
BRANCH_RETURN: 0.11796

