WARNING: physical memory size is smaller than virtual memory size.
WARNING: option --warmup_instructions is deprecated. Use --warmup-instructions instead.
WARNING: option --simulation_instructions is deprecated. Use --simulation-instructions instead.

*** ChampSim Multicore Out-of-Order Simulator ***
Warmup Instructions: 25000000
Simulation Instructions: 25000000
Number of CPUs: 1
Page size: 4096

Off-chip DRAM Size: 4 GiB Channels: 1 Width: 64-bit Data Race: 3200 MT/s
Heartbeat CPU 0 instructions: 10000003 cycles: 2502855 heartbeat IPC: 3.995 cumulative IPC: 3.995 (Simulation time: 00 hr 00 min 25 sec)
Heartbeat CPU 0 instructions: 20000001 cycles: 5007385 heartbeat IPC: 3.993 cumulative IPC: 3.994 (Simulation time: 00 hr 00 min 49 sec)
Warmup finished CPU 0 instructions: 25000000 cycles: 6258549 cumulative IPC: 3.995 (Simulation time: 00 hr 01 min 05 sec)
Warmup complete CPU 0 instructions: 25000000 cycles: 6258549 cumulative IPC: 3.995 (Simulation time: 00 hr 01 min 05 sec)
Heartbeat CPU 0 instructions: 30000002 cycles: 8689233 heartbeat IPC: 2.716 cumulative IPC: 2.057 (Simulation time: 00 hr 01 min 27 sec)
Heartbeat CPU 0 instructions: 40000002 cycles: 12912101 heartbeat IPC: 2.368 cumulative IPC: 2.254 (Simulation time: 00 hr 02 min 04 sec)
Heartbeat CPU 0 instructions: 50000002 cycles: 16781696 heartbeat IPC: 2.584 cumulative IPC: 2.376 (Simulation time: 00 hr 02 min 36 sec)
Simulation finished CPU 0 instructions: 25000002 cycles: 10523148 cumulative IPC: 2.376 (Simulation time: 00 hr 02 min 36 sec)
Simulation complete CPU 0 instructions: 25000002 cycles: 10523148 cumulative IPC: 2.376 (Simulation time: 00 hr 02 min 36 sec)

ChampSim completed all CPUs

=== Simulation ===
CPU 0 runs ipc1_public/client_003.champsimtrace.xz
Region of Interest Statistics

CPU 0 cumulative IPC: 2.376 instructions: 25000002 cycles: 10523148
CPU 0 Branch Prediction Accuracy: 97.36% MPKI: 4.801 Average ROB Occupancy at Mispredict: 67.54
Branch type MPKI
BRANCH_DIRECT_JUMP: 0.0576
BRANCH_INDIRECT: 0.729
BRANCH_CONDITIONAL: 3.24
BRANCH_DIRECT_CALL: 0.127
BRANCH_INDIRECT_CALL: 0.393
BRANCH_RETURN: 0.254

LLC TOTAL        ACCESS:     222984 HIT:     175592 MISS:      47392
LLC LOAD         ACCESS:      52068 HIT:      39215 MISS:      12853
LLC RFO          ACCESS:      62577 HIT:      34927 MISS:      27650
LLC PREFETCH     ACCESS:      25685 HIT:      19305 MISS:       6380
LLC WRITE        ACCESS:      82203 HIT:      82014 MISS:        189
LLC TRANSLATION  ACCESS:        451 HIT:        131 MISS:        320
LLC PREFETCH REQUESTED:          0 ISSUED:          0 USEFUL:          0 USELESS:          0
LLC AVERAGE MISS LATENCY: 216.2 cycles
cpu0_DTLB TOTAL        ACCESS:    5650277 HIT:    5575058 MISS:      75219
cpu0_DTLB LOAD         ACCESS:    5650277 HIT:    5575058 MISS:      75219
cpu0_DTLB RFO          ACCESS:          0 HIT:          0 MISS:          0
cpu0_DTLB PREFETCH     ACCESS:          0 HIT:          0 MISS:          0
cpu0_DTLB WRITE        ACCESS:          0 HIT:          0 MISS:          0
cpu0_DTLB TRANSLATION  ACCESS:          0 HIT:          0 MISS:          0
cpu0_DTLB PREFETCH REQUESTED:          0 ISSUED:          0 USEFUL:          0 USELESS:          0
cpu0_DTLB AVERAGE MISS LATENCY: 6.179 cycles
cpu0_ITLB TOTAL        ACCESS:    2039587 HIT:    1964183 MISS:      75404
cpu0_ITLB LOAD         ACCESS:    2039587 HIT:    1964183 MISS:      75404
cpu0_ITLB RFO          ACCESS:          0 HIT:          0 MISS:          0
cpu0_ITLB PREFETCH     ACCESS:          0 HIT:          0 MISS:          0
cpu0_ITLB WRITE        ACCESS:          0 HIT:          0 MISS:          0
cpu0_ITLB TRANSLATION  ACCESS:          0 HIT:          0 MISS:          0
cpu0_ITLB PREFETCH REQUESTED:          0 ISSUED:          0 USEFUL:          0 USELESS:          0
cpu0_ITLB AVERAGE MISS LATENCY: 2.485 cycles
cpu0_L1D TOTAL        ACCESS:   10247129 HIT:    9693671 MISS:     553458
cpu0_L1D LOAD         ACCESS:    3897354 HIT:    3784865 MISS:     112489
cpu0_L1D RFO          ACCESS:          0 HIT:          0 MISS:          0
cpu0_L1D PREFETCH     ACCESS:    2456433 HIT:    2341029 MISS:     115404
cpu0_L1D WRITE        ACCESS:    3892530 HIT:    3567725 MISS:     324805
cpu0_L1D TRANSLATION  ACCESS:        812 HIT:         52 MISS:        760
cpu0_L1D PREFETCH REQUESTED:    3900850 ISSUED:    2456430 USEFUL:      23552 USELESS:      40926
cpu0_L1D AVERAGE MISS LATENCY: 21.43 cycles
cpu0_L1I TOTAL        ACCESS:    2375166 HIT:    2066787 MISS:     308379
cpu0_L1I LOAD         ACCESS:    2375166 HIT:    2066787 MISS:     308379
cpu0_L1I RFO          ACCESS:          0 HIT:          0 MISS:          0
cpu0_L1I PREFETCH     ACCESS:          0 HIT:          0 MISS:          0
cpu0_L1I WRITE        ACCESS:          0 HIT:          0 MISS:          0
cpu0_L1I TRANSLATION  ACCESS:          0 HIT:          0 MISS:          0
cpu0_L1I PREFETCH REQUESTED:          0 ISSUED:          0 USEFUL:          0 USELESS:          0
cpu0_L1I AVERAGE MISS LATENCY: 13.99 cycles
cpu0_L2C TOTAL        ACCESS:     529217 HIT:     387740 MISS:     141477
cpu0_L2C LOAD         ACCESS:     276016 HIT:     223948 MISS:      52068
cpu0_L2C RFO          ACCESS:      80806 HIT:      18229 MISS:      62577
cpu0_L2C PREFETCH     ACCESS:      64529 HIT:      38844 MISS:      25685
cpu0_L2C WRITE        ACCESS:     107106 HIT:     106410 MISS:        696
cpu0_L2C TRANSLATION  ACCESS:        760 HIT:        309 MISS:        451
cpu0_L2C PREFETCH REQUESTED:          0 ISSUED:          0 USEFUL:          0 USELESS:          0
cpu0_L2C AVERAGE MISS LATENCY: 92.69 cycles
cpu0_STLB TOTAL        ACCESS:      80792 HIT:      80007 MISS:        785
cpu0_STLB LOAD         ACCESS:      80792 HIT:      80007 MISS:        785
cpu0_STLB RFO          ACCESS:          0 HIT:          0 MISS:          0
cpu0_STLB PREFETCH     ACCESS:          0 HIT:          0 MISS:          0
cpu0_STLB WRITE        ACCESS:          0 HIT:          0 MISS:          0
cpu0_STLB TRANSLATION  ACCESS:          0 HIT:          0 MISS:          0
cpu0_STLB PREFETCH REQUESTED:          0 ISSUED:          0 USEFUL:          0 USELESS:          0
cpu0_STLB AVERAGE MISS LATENCY: 204.9 cycles

DRAM Statistics

Channel 0 RQ ROW_BUFFER_HIT:      15576
  ROW_BUFFER_MISS:      31615
 AVG DBUS CONGESTED CYCLE: 3.942
WQ ROW_BUFFER_HIT: Channel 0 
  ROW_BUFFER_MISS:       4803
  FULL:      26940
