
*** ChampSim Multicore Out-of-Order Simulator ***

Warmup Instructions: 25000000
Simulation Instructions: 25000000
Number of CPUs: 1
Off-chip DRAM Size: 4 GiB Channels: 1 Width: 64-bit Data Rate: 3200 MT/s

VirtualMemory physical capacity: 8588881920 num_ppages: 2096895
VirtualMemory page size: 4096 log2_page_size: 12

CPU 0 runs ipc1_public/server_001.champsimtrace.xz
Basic BTB sets: 1024 ways: 8 indirect buffer size: 4096 RAS size: 64
CPU 0 Entangling prefetcher
cpu0_L1D next line prefetcher
WARNING: The extended signature CACHE::prefetch_line(ip, base_addr, pf_addr, fill_this_level, prefetch_metadata) is deprecated.
WARNING: Use CACHE::prefetch_line(pf_addr, fill_this_level, prefetch_metadata) instead.
Heartbeat CPU 0 instructions: 10000000 cycles: 2533460 heartbeat IPC: 3.94717 cumulative IPC: 3.94717 (Simulation time: 0 hr 0 min 18 sec) 
Heartbeat CPU 0 instructions: 20000000 cycles: 5075278 heartbeat IPC: 3.93419 cumulative IPC: 3.94067 (Simulation time: 0 hr 0 min 36 sec) 

Warmup complete CPU 0 instructions: 25000003 cycles: 6345889 (Simulation time: 0 hr 0 min 45 sec) 

Heartbeat CPU 0 instructions: 30000003 cycles: 9499572 heartbeat IPC: 2.26025 cumulative IPC: 1.58545 (Simulation time: 0 hr 0 min 59 sec) 
Heartbeat CPU 0 instructions: 40000001 cycles: 17003722 heartbeat IPC: 1.3326 cumulative IPC: 1.40742 (Simulation time: 0 hr 1 min 34 sec) 
Heartbeat CPU 0 instructions: 50000003 cycles: 24050661 heartbeat IPC: 1.41906 cumulative IPC: 1.41205 (Simulation time: 0 hr 2 min 9 sec) 
Finished CPU 0 instructions: 25000000 cycles: 17704772 cumulative IPC: 1.41205 (Simulation time: 0 hr 2 min 9 sec) 

ChampSim completed all CPUs

Region of Interest Statistics

CPU 0 cumulative IPC: 1.41205 instructions: 25000000 cycles: 17704772
cpu0_DTLB TOTAL     ACCESS:    4762879  HIT:    4607776  MISS:     155103
cpu0_DTLB LOAD      ACCESS:    2990787  HIT:    2846271  MISS:     144516
cpu0_DTLB RFO       ACCESS:    1772092  HIT:    1761505  MISS:      10587
cpu0_DTLB PREFETCH  ACCESS:          0  HIT:          0  MISS:          0
cpu0_DTLB WRITEBACK ACCESS:          0  HIT:          0  MISS:          0
cpu0_DTLB TRANSLATION ACCESS:          0  HIT:          0  MISS:          0
cpu0_DTLB PREFETCH  REQUESTED:          0  ISSUED:          0  USEFUL:          0  USELESS:          0
cpu0_DTLB AVERAGE MISS LATENCY: 14.4461 cycles
cpu0_ITLB TOTAL     ACCESS:    1205477  HIT:    1153635  MISS:      51842
cpu0_ITLB LOAD      ACCESS:    1205477  HIT:    1153635  MISS:      51842
cpu0_ITLB RFO       ACCESS:          0  HIT:          0  MISS:          0
cpu0_ITLB PREFETCH  ACCESS:          0  HIT:          0  MISS:          0
cpu0_ITLB WRITEBACK ACCESS:          0  HIT:          0  MISS:          0
cpu0_ITLB TRANSLATION ACCESS:          0  HIT:          0  MISS:          0
cpu0_ITLB PREFETCH  REQUESTED:          0  ISSUED:          0  USEFUL:          0  USELESS:          0
cpu0_ITLB AVERAGE MISS LATENCY: 10.3005 cycles
cpu0_L1I TOTAL     ACCESS:   10012276  HIT:    9636498  MISS:     375778
cpu0_L1I LOAD      ACCESS:    2586192  HIT:    2552822  MISS:      33370
cpu0_L1I RFO       ACCESS:          0  HIT:          0  MISS:          0
cpu0_L1I PREFETCH  ACCESS:    7426084  HIT:    7083676  MISS:     342408
cpu0_L1I WRITEBACK ACCESS:          0  HIT:          0  MISS:          0
cpu0_L1I TRANSLATION ACCESS:          0  HIT:          0  MISS:          0
cpu0_L1I PREFETCH  REQUESTED:   10439751  ISSUED:    7445113  USEFUL:     319259  USELESS:      34424
cpu0_L1I AVERAGE MISS LATENCY: 34.4316 cycles
cpu0_STLB TOTAL     ACCESS:     206945  HIT:     191488  MISS:      15457
cpu0_STLB LOAD      ACCESS:     196358  HIT:     181873  MISS:      14485
cpu0_STLB RFO       ACCESS:      10587  HIT:       9615  MISS:        972
cpu0_STLB PREFETCH  ACCESS:          0  HIT:          0  MISS:          0
cpu0_STLB WRITEBACK ACCESS:          0  HIT:          0  MISS:          0
cpu0_STLB TRANSLATION ACCESS:          0  HIT:          0  MISS:          0
cpu0_STLB PREFETCH  REQUESTED:          0  ISSUED:          0  USEFUL:          0  USELESS:          0
cpu0_STLB AVERAGE MISS LATENCY: 58.7189 cycles
cpu0_L1D TOTAL     ACCESS:    8567318  HIT:    8289574  MISS:     277744
cpu0_L1D LOAD      ACCESS:    3018600  HIT:    2902064  MISS:     116536
cpu0_L1D RFO       ACCESS:    2603795  HIT:    2557540  MISS:      46255
cpu0_L1D PREFETCH  ACCESS:    2929869  HIT:    2817674  MISS:     112195
cpu0_L1D WRITEBACK ACCESS:          0  HIT:          0  MISS:          0
cpu0_L1D TRANSLATION ACCESS:      15054  HIT:      12296  MISS:       2758
cpu0_L1D PREFETCH  REQUESTED:    3042953  ISSUED:    3031110  USEFUL:     112769  USELESS:      24635
cpu0_L1D AVERAGE MISS LATENCY: 162.876 cycles
cpu0_L2C TOTAL     ACCESS:     762356  HIT:     498259  MISS:     264097
cpu0_L2C LOAD      ACCESS:     114333  HIT:      51552  MISS:      62781
cpu0_L2C RFO       ACCESS:      45160  HIT:       4917  MISS:      40243
cpu0_L2C PREFETCH  ACCESS:     491258  HIT:     331458  MISS:     159800
cpu0_L2C WRITEBACK ACCESS:     108847  HIT:     108449  MISS:        398
cpu0_L2C TRANSLATION ACCESS:       2758  HIT:       1883  MISS:        875
cpu0_L2C PREFETCH  REQUESTED:          0  ISSUED:          0  USEFUL:          0  USELESS:          0
cpu0_L2C AVERAGE MISS LATENCY: 214.455 cycles
LLC TOTAL     ACCESS:     356027  HIT:     219247  MISS:     136780
LLC LOAD      ACCESS:      62776  HIT:      34252  MISS:      28524
LLC RFO       ACCESS:      40242  HIT:       4223  MISS:      36019
LLC PREFETCH  ACCESS:     159798  HIT:      87702  MISS:      72096
LLC WRITEBACK ACCESS:      92336  HIT:      92315  MISS:         21
LLC TRANSLATION ACCESS:        875  HIT:        755  MISS:        120
LLC PREFETCH  REQUESTED:          0  ISSUED:          0  USEFUL:          0  USELESS:          0
LLC AVERAGE MISS LATENCY: 373.579 cycles
CPU 0 L1I Entangling prefetcher final stats
IP accesses: 1f9c 7e700 26949 / 2587654
IP misses: bd1a 2f4680 395 / 34832
IP hits: 0 0 0 / 0
IP late: bd1a 2f4680 395 / 25189
IP wrong: 37ed dfb40 526 / 77086
miss rate: 0.0134608
coverage: 0
coverage_late: 0.723157
accuracy: 0
accuracy_late: 0.246287
discarded: 0
evicts entangled j table: 0
evicts entangled k table: 5800
max bb size: 111
formats: 600 1610 5461 988 761 1639 0 
hist_lookups: 3842 4673 3754 3162 2611 2073 1721 1183 849 644 489 312 284 206 104 0 21 1469 
hist_lookups_evict: 0.0766507 %
hist_lookups_shortlat: 5.3619 %
bb_found_hist: 0 423366 196439 99964 99251 57332 40558 21551 25839 15097 3874 2228 2490 6469 6271 361 2866 2960 30 395 493 5950 429 0 0 856 8 3604 0 0 0 0 0 8 0 0 0 0 0 0 0 0 7 0 0 0 0 8 0 0 0 0 0 0 0 0 0 0 0 0 0 0 0 0 
bb_found_summary: 3175343 1018704 3.11704
entangled_found_hist: 0 228196 297410 419839 15750 6652 405 0 
entangled_found_summary: 2181223 968252 2.25274
bb_ent_found_hist: 0 742471 322702 155184 137683 144471 109231 20580 23342 19917 4629 2278 626 12812 798 661 8702 6712 137 1236 4266 8134 830 0 0 0 16 5818 0 0 0 0 0 21 0 0 0 0 0 0 0 0 190 0 0 0 0 10 0 0 0 0 0 0 0 0 0 0 0 0 0 0 0 0 
bb_ent_found_summary: 5278777 1733457 3.04523
SET:1
TAG:57d FORMAT:5 ENTANGLED_ADDRESSES:218 CONF:3 0 CONF:0 0 CONF:0 0 CONF:0 0 CONF:0 0 CONF:0 BB SIZE:0
TAG:1ff FORMAT:2 ENTANGLED_ADDRESSES:edf88fe CONF:3 e8e49bc CONF:3 0 CONF:0 0 CONF:0 0 CONF:0 0 CONF:0 BB SIZE:1
TAG:137 FORMAT:5 ENTANGLED_ADDRESSES:267 CONF:3 c5 CONF:3 46 CONF:3 b8 CONF:0 34c CONF:0 0 CONF:0 BB SIZE:3
TAG:136 FORMAT:3 ENTANGLED_ADDRESSES:d4a5 CONF:3 a83e CONF:3 7671 CONF:3 0 CONF:0 0 CONF:0 0 CONF:0 BB SIZE:2
TAG:141 FORMAT:3 ENTANGLED_ADDRESSES:14ced CONF:3 14d0c CONF:3 14d0f CONF:1 0 CONF:0 0 CONF:0 0 CONF:0 BB SIZE:c
TAG:3de FORMAT:5 ENTANGLED_ADDRESSES:1f6 CONF:1 1a4 CONF:1 244 CONF:2 1f0 CONF:1 1a8 CONF:0 0 CONF:0 BB SIZE:1
TAG:3dd FORMAT:4 ENTANGLED_ADDRESSES:1774 CONF:1 0 CONF:0 0 CONF:0 0 CONF:0 0 CONF:0 0 CONF:0 BB SIZE:1
TAG:13d FORMAT:3 ENTANGLED_ADDRESSES:25726 CONF:2 25849 CONF:1 2564a CONF:3 0 CONF:0 0 CONF:0 0 CONF:0 BB SIZE:1
TAG:3e4 FORMAT:2 ENTANGLED_ADDRESSES:edcaeb8 CONF:2 edbc79a CONF:2 0 CONF:0 0 CONF:0 0 CONF:0 0 CONF:0 BB SIZE:2
TAG:545 FORMAT:2 ENTANGLED_ADDRESSES:edbe1fc CONF:2 edbe1d1 CONF:2 0 CONF:0 0 CONF:0 0 CONF:0 0 CONF:0 BB SIZE:2
TAG:53e FORMAT:6 ENTANGLED_ADDRESSES:62 CONF:3 5b CONF:3 c5 CONF:3 0 CONF:0 0 CONF:0 0 CONF:0 BB SIZE:5
TAG:379 FORMAT:2 ENTANGLED_ADDRESSES:edcda7c CONF:2 edbc7af CONF:3 0 CONF:0 0 CONF:0 0 CONF:0 0 CONF:0 BB SIZE:2
TAG:155 FORMAT:6 ENTANGLED_ADDRESSES:85 CONF:1 88 CONF:3 8d CONF:3 c5 CONF:1 c6 CONF:2 c2 CONF:3 BB SIZE:3
TAG:132 FORMAT:6 ENTANGLED_ADDRESSES:ce CONF:3 0 CONF:0 0 CONF:0 0 CONF:0 0 CONF:0 0 CONF:0 BB SIZE:0
TAG:562 FORMAT:3 ENTANGLED_ADDRESSES:91cc CONF:3 ac82 CONF:3 0 CONF:0 0 CONF:0 0 CONF:0 0 CONF:0 BB SIZE:0
TAG:150 FORMAT:3 ENTANGLED_ADDRESSES:1158a CONF:3 143 CONF:3 db3b CONF:3 0 CONF:0 0 CONF:0 0 CONF:0 BB SIZE:5
SET:2
TAG:1ff FORMAT:2 ENTANGLED_ADDRESSES:edf85f0 CONF:3 e8e497b CONF:3 0 CONF:0 0 CONF:0 0 CONF:0 0 CONF:0 BB SIZE:2
TAG:1c FORMAT:3 ENTANGLED_ADDRESSES:14842 CONF:2 ac8d CONF:3 f4bf CONF:3 0 CONF:0 0 CONF:0 0 CONF:0 BB SIZE:2
TAG:33 FORMAT:3 ENTANGLED_ADDRESSES:11fb2 CONF:2 3993 CONF:3 7e20 CONF:3 0 CONF:0 0 CONF:0 0 CONF:0 BB SIZE:3
TAG:14c FORMAT:3 ENTANGLED_ADDRESSES:a111 CONF:3 d063 CONF:3 d060 CONF:3 0 CONF:0 0 CONF:0 0 CONF:0 BB SIZE:1
TAG:135 FORMAT:3 ENTANGLED_ADDRESSES:38bd CONF:0 4a84 CONF:1 354 CONF:0 0 CONF:0 0 CONF:0 0 CONF:0 BB SIZE:1
TAG:17a FORMAT:3 ENTANGLED_ADDRESSES:d2b4 CONF:3 18c5b CONF:1 0 CONF:0 0 CONF:0 0 CONF:0 0 CONF:0 BB SIZE:1
TAG:53e FORMAT:2 ENTANGLED_ADDRESSES:edba700 CONF:2 edc8180 CONF:2 0 CONF:0 0 CONF:0 0 CONF:0 0 CONF:0 BB SIZE:1
TAG:16d FORMAT:3 ENTANGLED_ADDRESSES:edb CONF:3 5d26 CONF:0 0 CONF:0 0 CONF:0 0 CONF:0 0 CONF:0 BB SIZE:4
TAG:158 FORMAT:3 ENTANGLED_ADDRESSES:f7fe CONF:3 f800 CONF:3 f802 CONF:3 0 CONF:0 0 CONF:0 0 CONF:0 BB SIZE:2
TAG:0 FORMAT:1 ENTANGLED_ADDRESSES:0 CONF:0 0 CONF:0 0 CONF:0 0 CONF:0 0 CONF:0 0 CONF:0 BB SIZE:0
TAG:0 FORMAT:1 ENTANGLED_ADDRESSES:0 CONF:0 0 CONF:0 0 CONF:0 0 CONF:0 0 CONF:0 0 CONF:0 BB SIZE:0
TAG:0 FORMAT:1 ENTANGLED_ADDRESSES:0 CONF:0 0 CONF:0 0 CONF:0 0 CONF:0 0 CONF:0 0 CONF:0 BB SIZE:0
TAG:0 FORMAT:1 ENTANGLED_ADDRESSES:0 CONF:0 0 CONF:0 0 CONF:0 0 CONF:0 0 CONF:0 0 CONF:0 BB SIZE:0
TAG:0 FORMAT:1 ENTANGLED_ADDRESSES:0 CONF:0 0 CONF:0 0 CONF:0 0 CONF:0 0 CONF:0 0 CONF:0 BB SIZE:0
TAG:0 FORMAT:1 ENTANGLED_ADDRESSES:0 CONF:0 0 CONF:0 0 CONF:0 0 CONF:0 0 CONF:0 0 CONF:0 BB SIZE:0
TAG:0 FORMAT:1 ENTANGLED_ADDRESSES:0 CONF:0 0 CONF:0 0 CONF:0 0 CONF:0 0 CONF:0 0 CONF:0 BB SIZE:0
SET:3
TAG:7b FORMAT:1 ENTANGLED_ADDRESSES:0 CONF:0 0 CONF:0 0 CONF:0 0 CONF:0 0 CONF:0 0 CONF:0 BB SIZE:9
TAG:43 FORMAT:3 ENTANGLED_ADDRESSES:175eb CONF:2 10217 CONF:2 10225 CONF:2 0 CONF:0 0 CONF:0 0 CONF:0 BB SIZE:7
TAG:33 FORMAT:3 ENTANGLED_ADDRESSES:eac CONF:3 61f8 CONF:3 0 CONF:0 0 CONF:0 0 CONF:0 0 CONF:0 BB SIZE:1
TAG:1e4 FORMAT:3 ENTANGLED_ADDRESSES:d102 CONF:3 0 CONF:0 0 CONF:0 0 CONF:0 0 CONF:0 0 CONF:0 BB SIZE:3
TAG:50f FORMAT:2 ENTANGLED_ADDRESSES:ecc145e CONF:3 74 CONF:0 edcde75 CONF:3 0 CONF:0 0 CONF:0 0 CONF:0 BB SIZE:1
TAG:13d FORMAT:3 ENTANGLED_ADDRESSES:30b2 CONF:3 2527c CONF:3 25271 CONF:3 0 CONF:0 0 CONF:0 0 CONF:0 BB SIZE:1
TAG:135 FORMAT:3 ENTANGLED_ADDRESSES:5736 CONF:3 48a3 CONF:1 48a2 CONF:2 0 CONF:0 0 CONF:0 0 CONF:0 BB SIZE:2
TAG:545 FORMAT:2 ENTANGLED_ADDRESSES:edbe1c7 CONF:3 0 CONF:0 0 CONF:0 0 CONF:0 0 CONF:0 0 CONF:0 BB SIZE:0
TAG:134 FORMAT:3 ENTANGLED_ADDRESSES:f7c6 CONF:1 588f CONF:3 214a CONF:3 0 CONF:0 0 CONF:0 0 CONF:0 BB SIZE:0
TAG:3c3 FORMAT:4 ENTANGLED_ADDRESSES:1639 CONF:3 0 CONF:0 0 CONF:0 0 CONF:0 0 CONF:0 0 CONF:0 BB SIZE:1
TAG:162 FORMAT:4 ENTANGLED_ADDRESSES:1779 CONF:2 0 CONF:0 0 CONF:0 0 CONF:0 0 CONF:0 0 CONF:0 BB SIZE:0
TAG:191 FORMAT:1 ENTANGLED_ADDRESSES:0 CONF:0 0 CONF:0 0 CONF:0 0 CONF:0 0 CONF:0 0 CONF:0 BB SIZE:1
TAG:129 FORMAT:3 ENTANGLED_ADDRESSES:c0ef CONF:3 0 CONF:0 0 CONF:0 0 CONF:0 0 CONF:0 0 CONF:0 BB SIZE:4
TAG:1ff FORMAT:1 ENTANGLED_ADDRESSES:0 CONF:0 0 CONF:0 0 CONF:0 0 CONF:0 0 CONF:0 0 CONF:0 BB SIZE:3
TAG:0 FORMAT:1 ENTANGLED_ADDRESSES:0 CONF:0 0 CONF:0 0 CONF:0 0 CONF:0 0 CONF:0 0 CONF:0 BB SIZE:0
TAG:0 FORMAT:1 ENTANGLED_ADDRESSES:0 CONF:0 0 CONF:0 0 CONF:0 0 CONF:0 0 CONF:0 0 CONF:0 BB SIZE:0
SET:4
TAG:18b FORMAT:3 ENTANGLED_ADDRESSES:3e56 CONF:3 4c50 CONF:3 74ce CONF:3 0 CONF:0 0 CONF:0 0 CONF:0 BB SIZE:3
TAG:7a FORMAT:3 ENTANGLED_ADDRESSES:1400c CONF:1 c73c CONF:1 1400b CONF:3 0 CONF:0 0 CONF:0 0 CONF:0 BB SIZE:5
TAG:162 FORMAT:3 ENTANGLED_ADDRESSES:7e6f CONF:3 7858 CONF:3 4837 CONF:1 0 CONF:0 0 CONF:0 0 CONF:0 BB SIZE:1
TAG:1ee FORMAT:3 ENTANGLED_ADDRESSES:4564 CONF:3 12876 CONF:3 0 CONF:0 0 CONF:0 0 CONF:0 0 CONF:0 BB SIZE:1
TAG:16d FORMAT:3 ENTANGLED_ADDRESSES:113c0 CONF:3 0 CONF:0 0 CONF:0 0 CONF:0 0 CONF:0 0 CONF:0 BB SIZE:6
TAG:1af FORMAT:3 ENTANGLED_ADDRESSES:9bb7 CONF:3 bd21 CONF:3 5709 CONF:3 0 CONF:0 0 CONF:0 0 CONF:0 BB SIZE:2
TAG:3dc FORMAT:3 ENTANGLED_ADDRESSES:fc70 CONF:2 2545b CONF:2 2545d CONF:3 0 CONF:0 0 CONF:0 0 CONF:0 BB SIZE:1
TAG:379 FORMAT:2 ENTANGLED_ADDRESSES:edc20ca CONF:2 0 CONF:0 0 CONF:0 0 CONF:0 0 CONF:0 0 CONF:0 BB SIZE:1
TAG:1a FORMAT:1 ENTANGLED_ADDRESSES:0 CONF:0 0 CONF:0 0 CONF:0 0 CONF:0 0 CONF:0 0 CONF:0 BB SIZE:6
TAG:562 FORMAT:3 ENTANGLED_ADDRESSES:ac82 CONF:3 91cc CONF:3 0 CONF:0 0 CONF:0 0 CONF:0 0 CONF:0 BB SIZE:0
TAG:0 FORMAT:1 ENTANGLED_ADDRESSES:0 CONF:0 0 CONF:0 0 CONF:0 0 CONF:0 0 CONF:0 0 CONF:0 BB SIZE:0
TAG:0 FORMAT:1 ENTANGLED_ADDRESSES:0 CONF:0 0 CONF:0 0 CONF:0 0 CONF:0 0 CONF:0 0 CONF:0 BB SIZE:0
TAG:0 FORMAT:1 ENTANGLED_ADDRESSES:0 CONF:0 0 CONF:0 0 CONF:0 0 CONF:0 0 CONF:0 0 CONF:0 BB SIZE:0
TAG:0 FORMAT:1 ENTANGLED_ADDRESSES:0 CONF:0 0 CONF:0 0 CONF:0 0 CONF:0 0 CONF:0 0 CONF:0 BB SIZE:0
TAG:0 FORMAT:1 ENTANGLED_ADDRESSES:0 CONF:0 0 CONF:0 0 CONF:0 0 CONF:0 0 CONF:0 0 CONF:0 BB SIZE:0
TAG:0 FORMAT:1 ENTANGLED_ADDRESSES:0 CONF:0 0 CONF:0 0 CONF:0 0 CONF:0 0 CONF:0 0 CONF:0 BB SIZE:0
SET:5
TAG:3e5 FORMAT:2 ENTANGLED_ADDRESSES:edc10a8 CONF:1 edc1ad6 CONF:2 0 CONF:0 0 CONF:0 0 CONF:0 0 CONF:0 BB SIZE:2
TAG:137 FORMAT:1 ENTANGLED_ADDRESSES:0 CONF:0 0 CONF:0 0 CONF:0 0 CONF:0 0 CONF:0 0 CONF:0 BB SIZE:1
TAG:54 FORMAT:1 ENTANGLED_ADDRESSES:0 CONF:0 0 CONF:0 0 CONF:0 0 CONF:0 0 CONF:0 0 CONF:0 BB SIZE:d
TAG:1e2 FORMAT:1 ENTANGLED_ADDRESSES:0 CONF:0 0 CONF:0 0 CONF:0 0 CONF:0 0 CONF:0 0 CONF:0 BB SIZE:2
TAG:196 FORMAT:3 ENTANGLED_ADDRESSES:1690c CONF:3 16910 CONF:3 53fd CONF:2 0 CONF:0 0 CONF:0 0 CONF:0 BB SIZE:c
TAG:5f4 FORMAT:3 ENTANGLED_ADDRESSES:1170 CONF:2 1048c CONF:3 0 CONF:0 0 CONF:0 0 CONF:0 0 CONF:0 BB SIZE:1
TAG:57e FORMAT:3 ENTANGLED_ADDRESSES:b5cc CONF:2 b5c8 CONF:3 8188 CONF:1 0 CONF:0 0 CONF:0 0 CONF:0 BB SIZE:1
TAG:83 FORMAT:3 ENTANGLED_ADDRESSES:eff5 CONF:3 bef CONF:3 efe3 CONF:3 0 CONF:0 0 CONF:0 0 CONF:0 BB SIZE:2
TAG:17e FORMAT:3 ENTANGLED_ADDRESSES:c59b CONF:3 6a83 CONF:0 169 CONF:0 0 CONF:0 0 CONF:0 0 CONF:0 BB SIZE:1
TAG:699 FORMAT:2 ENTANGLED_ADDRESSES:e8e4a0f CONF:2 e8e49df CONF:0 0 CONF:0 0 CONF:0 0 CONF:0 0 CONF:0 BB SIZE:1
TAG:3de FORMAT:4 ENTANGLED_ADDRESSES:19a4 CONF:3 b3d CONF:2 19f0 CONF:3 19f6 CONF:3 0 CONF:0 0 CONF:0 BB SIZE:0
TAG:159 FORMAT:3 ENTANGLED_ADDRESSES:ed90 CONF:3 35e3 CONF:0 0 CONF:0 0 CONF:0 0 CONF:0 0 CONF:0 BB SIZE:5
TAG:53e FORMAT:2 ENTANGLED_ADDRESSES:edb84af CONF:2 0 CONF:0 0 CONF:0 0 CONF:0 0 CONF:0 0 CONF:0 BB SIZE:1
TAG:3f9 FORMAT:3 ENTANGLED_ADDRESSES:79de CONF:3 79eb CONF:3 3eb2 CONF:3 0 CONF:0 0 CONF:0 0 CONF:0 BB SIZE:1
TAG:156 FORMAT:5 ENTANGLED_ADDRESSES:3bf CONF:1 0 CONF:0 0 CONF:0 0 CONF:0 0 CONF:0 0 CONF:0 BB SIZE:2
TAG:162 FORMAT:3 ENTANGLED_ADDRESSES:7e6f CONF:2 465e CONF:3 7fee CONF:0 0 CONF:0 0 CONF:0 0 CONF:0 BB SIZE:2
SET:6
TAG:1ff FORMAT:3 ENTANGLED_ADDRESSES:b779 CONF:2 b77d CONF:2 c337 CONF:3 0 CONF:0 0 CONF:0 0 CONF:0 BB SIZE:6
TAG:17a FORMAT:3 ENTANGLED_ADDRESSES:edb CONF:3 edf CONF:3 cb8d CONF:3 0 CONF:0 0 CONF:0 0 CONF:0 BB SIZE:5
TAG:1c FORMAT:3 ENTANGLED_ADDRESSES:13b23 CONF:1 13b1f CONF:3 ac83 CONF:3 0 CONF:0 0 CONF:0 0 CONF:0 BB SIZE:5
TAG:70 FORMAT:3 ENTANGLED_ADDRESSES:6ae7 CONF:3 6b37 CONF:3 6b24 CONF:3 0 CONF:0 0 CONF:0 0 CONF:0 BB SIZE:a
TAG:113 FORMAT:3 ENTANGLED_ADDRESSES:de76 CONF:3 6b24 CONF:2 6afe CONF:2 0 CONF:0 0 CONF:0 0 CONF:0 BB SIZE:1
TAG:33 FORMAT:3 ENTANGLED_ADDRESSES:32fe CONF:3 3302 CONF:3 73b7 CONF:3 0 CONF:0 0 CONF:0 0 CONF:0 BB SIZE:8
TAG:136 FORMAT:3 ENTANGLED_ADDRESSES:29cd CONF:3 12876 CONF:3 29db CONF:3 0 CONF:0 0 CONF:0 0 CONF:0 BB SIZE:1
TAG:141 FORMAT:3 ENTANGLED_ADDRESSES:10356 CONF:2 9bb7 CONF:0 bde3 CONF:2 0 CONF:0 0 CONF:0 0 CONF:0 BB SIZE:4
TAG:13d FORMAT:3 ENTANGLED_ADDRESSES:30ae CONF:3 3096 CONF:3 25208 CONF:3 0 CONF:0 0 CONF:0 0 CONF:0 BB SIZE:0
TAG:699 FORMAT:2 ENTANGLED_ADDRESSES:e8e4a0f CONF:3 e8e49df CONF:0 0 CONF:0 0 CONF:0 0 CONF:0 0 CONF:0 BB SIZE:0
TAG:1af FORMAT:1 ENTANGLED_ADDRESSES:0 CONF:0 0 CONF:0 0 CONF:0 0 CONF:0 0 CONF:0 0 CONF:0 BB SIZE:1
TAG:137 FORMAT:3 ENTANGLED_ADDRESSES:7c25 CONF:0 0 CONF:0 0 CONF:0 0 CONF:0 0 CONF:0 0 CONF:0 BB SIZE:0
TAG:5f4 FORMAT:2 ENTANGLED_ADDRESSES:edb7d84 CONF:2 edbdef7 CONF:2 0 CONF:0 0 CONF:0 0 CONF:0 0 CONF:0 BB SIZE:0
TAG:0 FORMAT:1 ENTANGLED_ADDRESSES:0 CONF:0 0 CONF:0 0 CONF:0 0 CONF:0 0 CONF:0 0 CONF:0 BB SIZE:0
TAG:0 FORMAT:1 ENTANGLED_ADDRESSES:0 CONF:0 0 CONF:0 0 CONF:0 0 CONF:0 0 CONF:0 0 CONF:0 BB SIZE:0
TAG:0 FORMAT:1 ENTANGLED_ADDRESSES:0 CONF:0 0 CONF:0 0 CONF:0 0 CONF:0 0 CONF:0 0 CONF:0 BB SIZE:0
SET:7
TAG:83 FORMAT:6 ENTANGLED_ADDRESSES:82 CONF:2 0 CONF:0 0 CONF:0 0 CONF:0 0 CONF:0 0 CONF:0 BB SIZE:5
TAG:1e2 FORMAT:1 ENTANGLED_ADDRESSES:0 CONF:0 0 CONF:0 0 CONF:0 0 CONF:0 0 CONF:0 0 CONF:0 BB SIZE:6
TAG:51 FORMAT:3 ENTANGLED_ADDRESSES:3752 CONF:2 3758 CONF:3 16274 CONF:3 0 CONF:0 0 CONF:0 0 CONF:0 BB SIZE:1
TAG:57e FORMAT:2 ENTANGLED_ADDRESSES:ecce92c CONF:3 e105 CONF:0 edce108 CONF:3 0 CONF:0 0 CONF:0 0 CONF:0 BB SIZE:1
TAG:136 FORMAT:3 ENTANGLED_ADDRESSES:da29 CONF:3 1700 CONF:2 0 CONF:0 0 CONF:0 0 CONF:0 0 CONF:0 BB SIZE:2
TAG:137 FORMAT:3 ENTANGLED_ADDRESSES:fd0e CONF:2 4a84 CONF:3 38c5 CONF:2 0 CONF:0 0 CONF:0 0 CONF:0 BB SIZE:0
TAG:129 FORMAT:3 ENTANGLED_ADDRESSES:a94f CONF:3 32ff CONF:3 3300 CONF:3 0 CONF:0 0 CONF:0 0 CONF:0 BB SIZE:1
TAG:19a FORMAT:3 ENTANGLED_ADDRESSES:95c9 CONF:2 c066 CONF:3 3b49 CONF:2 0 CONF:0 0 CONF:0 0 CONF:0 BB SIZE:8
TAG:5f4 FORMAT:3 ENTANGLED_ADDRESSES:1047c CONF:3 1ad6 CONF:2 114c CONF:3 0 CONF:0 0 CONF:0 0 CONF:0 BB SIZE:2
TAG:3d1 FORMAT:6 ENTANGLED_ADDRESSES:38 CONF:3 de CONF:3 0 CONF:0 0 CONF:0 0 CONF:0 0 CONF:0 BB SIZE:1
TAG:3de FORMAT:4 ENTANGLED_ADDRESSES:1151 CONF:2 1145 CONF:2 1a25 CONF:3 5d4 CONF:3 0 CONF:0 0 CONF:0 BB SIZE:1
TAG:15b FORMAT:5 ENTANGLED_ADDRESSES:323 CONF:3 33b CONF:3 331 CONF:3 2f0 CONF:3 346 CONF:3 0 CONF:0 BB SIZE:0
TAG:1b4 FORMAT:2 ENTANGLED_ADDRESSES:e8e4979 CONF:3 edf7755 CONF:3 0 CONF:0 0 CONF:0 0 CONF:0 0 CONF:0 BB SIZE:b
TAG:50f FORMAT:3 ENTANGLED_ADDRESSES:271d CONF:3 e752 CONF:3 2408 CONF:3 0 CONF:0 0 CONF:0 0 CONF:0 BB SIZE:0
TAG:1a7 FORMAT:3 ENTANGLED_ADDRESSES:c48 CONF:3 c4a CONF:3 0 CONF:0 0 CONF:0 0 CONF:0 0 CONF:0 BB SIZE:0
TAG:53e FORMAT:2 ENTANGLED_ADDRESSES:edbe1fc CONF:3 edce34a CONF:3 0 CONF:0 0 CONF:0 0 CONF:0 0 CONF:0 BB SIZE:0
SET:8
TAG:15b FORMAT:3 ENTANGLED_ADDRESSES:4bcb CONF:3 4b23 CONF:3 277e1 CONF:3 0 CONF:0 0 CONF:0 0 CONF:0 BB SIZE:4
TAG:1c2 FORMAT:3 ENTANGLED_ADDRESSES:1489 CONF:3 767e CONF:2 0 CONF:0 0 CONF:0 0 CONF:0 0 CONF:0 BB SIZE:1
TAG:1b FORMAT:1 ENTANGLED_ADDRESSES:0 CONF:0 0 CONF:0 0 CONF:0 0 CONF:0 0 CONF:0 0 CONF:0 BB SIZE:2
TAG:156 FORMAT:1 ENTANGLED_ADDRESSES:0 CONF:0 0 CONF:0 0 CONF:0 0 CONF:0 0 CONF:0 0 CONF:0 BB SIZE:1
TAG:155 FORMAT:6 ENTANGLED_ADDRESSES:99 CONF:3 0 CONF:0 0 CONF:0 0 CONF:0 0 CONF:0 0 CONF:0 BB SIZE:4
TAG:162 FORMAT:3 ENTANGLED_ADDRESSES:7fee CONF:0 870a CONF:3 8216 CONF:0 0 CONF:0 0 CONF:0 0 CONF:0 BB SIZE:0
TAG:5f4 FORMAT:2 ENTANGLED_ADDRESSES:edbe538 CONF:0 edbe52e CONF:2 0 CONF:0 0 CONF:0 0 CONF:0 0 CONF:0 BB SIZE:3
TAG:50f FORMAT:2 ENTANGLED_ADDRESSES:edbc8f1 CONF:2 edc1172 CONF:2 0 CONF:0 0 CONF:0 0 CONF:0 0 CONF:0 BB SIZE:2
TAG:1ff FORMAT:2 ENTANGLED_ADDRESSES:edce101 CONF:2 edcba33 CONF:3 0 CONF:0 0 CONF:0 0 CONF:0 0 CONF:0 BB SIZE:b
TAG:3de FORMAT:4 ENTANGLED_ADDRESSES:177c CONF:2 1974 CONF:0 1971 CONF:0 19a8 CONF:0 1a48 CONF:3 0 CONF:0 BB SIZE:2
TAG:3d1 FORMAT:3 ENTANGLED_ADDRESSES:4a84 CONF:2 25601 CONF:2 25603 CONF:2 0 CONF:0 0 CONF:0 0 CONF:0 BB SIZE:1
TAG:135 FORMAT:4 ENTANGLED_ADDRESSES:1a67 CONF:2 1c19 CONF:1 1a7e CONF:2 18bd CONF:3 267 CONF:0 0 CONF:0 BB SIZE:0
TAG:53e FORMAT:3 ENTANGLED_ADDRESSES:e1c5 CONF:2 abe9 CONF:3 a237 CONF:3 0 CONF:0 0 CONF:0 0 CONF:0 BB SIZE:0
TAG:13e FORMAT:3 ENTANGLED_ADDRESSES:1f3c CONF:3 6b10 CONF:3 6f88 CONF:3 0 CONF:0 0 CONF:0 0 CONF:0 BB SIZE:1
TAG:83 FORMAT:3 ENTANGLED_ADDRESSES:13cb2 CONF:3 0 CONF:0 0 CONF:0 0 CONF:0 0 CONF:0 0 CONF:0 BB SIZE:6
TAG:58 FORMAT:3 ENTANGLED_ADDRESSES:53fd CONF:2 1690f CONF:3 0 CONF:0 0 CONF:0 0 CONF:0 0 CONF:0 BB SIZE:1
SET:9
TAG:1ed FORMAT:3 ENTANGLED_ADDRESSES:9646 CONF:3 3e56 CONF:3 0 CONF:0 0 CONF:0 0 CONF:0 0 CONF:0 BB SIZE:8
TAG:1e2 FORMAT:3 ENTANGLED_ADDRESSES:4623 CONF:2 4627 CONF:2 ecb2 CONF:3 0 CONF:0 0 CONF:0 0 CONF:0 BB SIZE:3
TAG:15b FORMAT:3 ENTANGLED_ADDRESSES:4bcd CONF:2 3902 CONF:3 38f6 CONF:3 4b00 CONF:0 3cf CONF:0 0 CONF:0 BB SIZE:1
TAG:57d FORMAT:2 ENTANGLED_ADDRESSES:ecc0f93 CONF:2 edcb604 CONF:2 0 CONF:0 0 CONF:0 0 CONF:0 0 CONF:0 BB SIZE:1
TAG:1bf FORMAT:3 ENTANGLED_ADDRESSES:5f9d CONF:2 9646 CONF:3 20f7 CONF:3 0 CONF:0 0 CONF:0 0 CONF:0 BB SIZE:1
TAG:3de FORMAT:5 ENTANGLED_ADDRESSES:16e CONF:2 196e CONF:0 1971 CONF:0 1974 CONF:0 0 CONF:0 0 CONF:0 BB SIZE:0
TAG:155 FORMAT:5 ENTANGLED_ADDRESSES:1c4 CONF:3 30ae CONF:0 45c4 CONF:0 0 CONF:0 0 CONF:0 0 CONF:0 BB SIZE:3
TAG:697 FORMAT:1 ENTANGLED_ADDRESSES:3fffc0000207f21 CONF:3 0 CONF:0 0 CONF:0 0 CONF:0 0 CONF:0 0 CONF:0 BB SIZE:0
TAG:51 FORMAT:3 ENTANGLED_ADDRESSES:13b78 CONF:3 efc CONF:3 0 CONF:0 0 CONF:0 0 CONF:0 0 CONF:0 BB SIZE:0
TAG:129 FORMAT:3 ENTANGLED_ADDRESSES:c0ed CONF:3 0 CONF:0 0 CONF:0 0 CONF:0 0 CONF:0 0 CONF:0 BB SIZE:0
TAG:53e FORMAT:1 ENTANGLED_ADDRESSES:0 CONF:0 0 CONF:0 0 CONF:0 0 CONF:0 0 CONF:0 0 CONF:0 BB SIZE:2
TAG:0 FORMAT:1 ENTANGLED_ADDRESSES:0 CONF:0 0 CONF:0 0 CONF:0 0 CONF:0 0 CONF:0 0 CONF:0 BB SIZE:0
TAG:0 FORMAT:1 ENTANGLED_ADDRESSES:0 CONF:0 0 CONF:0 0 CONF:0 0 CONF:0 0 CONF:0 0 CONF:0 BB SIZE:0
TAG:0 FORMAT:1 ENTANGLED_ADDRESSES:0 CONF:0 0 CONF:0 0 CONF:0 0 CONF:0 0 CONF:0 0 CONF:0 BB SIZE:0
TAG:0 FORMAT:1 ENTANGLED_ADDRESSES:0 CONF:0 0 CONF:0 0 CONF:0 0 CONF:0 0 CONF:0 0 CONF:0 BB SIZE:0
TAG:0 FORMAT:1 ENTANGLED_ADDRESSES:0 CONF:0 0 CONF:0 0 CONF:0 0 CONF:0 0 CONF:0 0 CONF:0 BB SIZE:0
SET:10
TAG:161 FORMAT:4 ENTANGLED_ADDRESSES:710 CONF:2 712 CONF:2 4fc CONF:2 4fd CONF:2 0 CONF:0 0 CONF:0 BB SIZE:1
TAG:1b FORMAT:6 ENTANGLED_ADDRESSES:86 CONF:2 0 CONF:0 0 CONF:0 0 CONF:0 0 CONF:0 0 CONF:0 BB SIZE:0
TAG:7a FORMAT:3 ENTANGLED_ADDRESSES:c73c CONF:1 c74e CONF:3 15004 CONF:3 0 CONF:0 0 CONF:0 0 CONF:0 BB SIZE:1
TAG:3d1 FORMAT:1 ENTANGLED_ADDRESSES:0 CONF:0 0 CONF:0 0 CONF:0 0 CONF:0 0 CONF:0 0 CONF:0 BB SIZE:1
TAG:3a1 FORMAT:3 ENTANGLED_ADDRESSES:2404c CONF:2 2404f CONF:3 2402c CONF:2 0 CONF:0 0 CONF:0 0 CONF:0 BB SIZE:1
TAG:113 FORMAT:3 ENTANGLED_ADDRESSES:6b2f CONF:3 d53e CONF:3 6b20 CONF:3 0 CONF:0 0 CONF:0 0 CONF:0 BB SIZE:0
TAG:1a6 FORMAT:3 ENTANGLED_ADDRESSES:f1b CONF:3 fe65 CONF:2 eaf CONF:2 0 CONF:0 0 CONF:0 0 CONF:0 BB SIZE:2
TAG:379 FORMAT:2 ENTANGLED_ADDRESSES:edcabeb CONF:3 edce6b1 CONF:3 edbe538 CONF:0 0 CONF:0 0 CONF:0 0 CONF:0 BB SIZE:0
TAG:1c0 FORMAT:3 ENTANGLED_ADDRESSES:41ee CONF:3 228d1 CONF:3 228c7 CONF:3 0 CONF:0 0 CONF:0 0 CONF:0 BB SIZE:2
TAG:177 FORMAT:3 ENTANGLED_ADDRESSES:2545b CONF:3 fc70 CONF:3 25516 CONF:3 0 CONF:0 0 CONF:0 0 CONF:0 BB SIZE:2
TAG:697 FORMAT:2 ENTANGLED_ADDRESSES:ecc80a6 CONF:3 e8e49be CONF:3 0 CONF:0 0 CONF:0 0 CONF:0 0 CONF:0 BB SIZE:2
TAG:154 FORMAT:3 ENTANGLED_ADDRESSES:143 CONF:2 5ba CONF:3 0 CONF:0 0 CONF:0 0 CONF:0 0 CONF:0 BB SIZE:2
TAG:562 FORMAT:3 ENTANGLED_ADDRESSES:da58 CONF:3 da5e CONF:2 ac7f CONF:3 0 CONF:0 0 CONF:0 0 CONF:0 BB SIZE:4
TAG:5a4 FORMAT:5 ENTANGLED_ADDRESSES:42 CONF:2 45 CONF:2 44 CONF:2 0 CONF:0 0 CONF:0 0 CONF:0 BB SIZE:2
TAG:15b FORMAT:3 ENTANGLED_ADDRESSES:4bcb CONF:2 4bc3 CONF:3 389f CONF:3 0 CONF:0 0 CONF:0 0 CONF:0 BB SIZE:2
TAG:1bc FORMAT:4 ENTANGLED_ADDRESSES:1786 CONF:2 109c CONF:3 109d CONF:3 0 CONF:0 0 CONF:0 0 CONF:0 BB SIZE:3
SET:11
TAG:1ed FORMAT:1 ENTANGLED_ADDRESSES:0 CONF:0 0 CONF:0 0 CONF:0 0 CONF:0 0 CONF:0 0 CONF:0 BB SIZE:a
TAG:178 FORMAT:3 ENTANGLED_ADDRESSES:15c38 CONF:3 0 CONF:0 0 CONF:0 0 CONF:0 0 CONF:0 0 CONF:0 BB SIZE:2
TAG:1f9 FORMAT:6 ENTANGLED_ADDRESSES:a5 CONF:2 0 CONF:0 0 CONF:0 0 CONF:0 0 CONF:0 0 CONF:0 BB SIZE:1
TAG:1c0 FORMAT:3 ENTANGLED_ADDRESSES:f9af CONF:3 277e1 CONF:3 4338 CONF:2 0 CONF:0 0 CONF:0 0 CONF:0 BB SIZE:5
TAG:135 FORMAT:3 ENTANGLED_ADDRESSES:5499 CONF:2 548a CONF:2 0 CONF:0 0 CONF:0 0 CONF:0 0 CONF:0 BB SIZE:2
TAG:167 FORMAT:2 ENTANGLED_ADDRESSES:edcba33 CONF:2 ecc052c CONF:1 143 CONF:0 0 CONF:0 0 CONF:0 0 CONF:0 BB SIZE:1
TAG:130 FORMAT:1 ENTANGLED_ADDRESSES:0 CONF:0 0 CONF:0 0 CONF:0 0 CONF:0 0 CONF:0 0 CONF:0 BB SIZE:2
TAG:146 FORMAT:3 ENTANGLED_ADDRESSES:1d8b CONF:3 f23c CONF:3 0 CONF:0 0 CONF:0 0 CONF:0 0 CONF:0 BB SIZE:1
TAG:3de FORMAT:2 ENTANGLED_ADDRESSES:edcaeb8 CONF:2 edbfe5b CONF:2 0 CONF:0 0 CONF:0 0 CONF:0 0 CONF:0 BB SIZE:2
TAG:49 FORMAT:3 ENTANGLED_ADDRESSES:25270 CONF:3 25278 CONF:3 2527e CONF:3 0 CONF:0 0 CONF:0 0 CONF:0 BB SIZE:0
TAG:57e FORMAT:6 ENTANGLED_ADDRESSES:39 CONF:1 0 CONF:0 0 CONF:0 0 CONF:0 0 CONF:0 0 CONF:0 BB SIZE:1
TAG:544 FORMAT:3 ENTANGLED_ADDRESSES:7683 CONF:3 7686 CONF:3 0 CONF:0 0 CONF:0 0 CONF:0 0 CONF:0 BB SIZE:1
TAG:3dd FORMAT:1 ENTANGLED_ADDRESSES:0 CONF:0 0 CONF:0 0 CONF:0 0 CONF:0 0 CONF:0 0 CONF:0 BB SIZE:1
TAG:0 FORMAT:1 ENTANGLED_ADDRESSES:0 CONF:0 0 CONF:0 0 CONF:0 0 CONF:0 0 CONF:0 0 CONF:0 BB SIZE:0
TAG:0 FORMAT:1 ENTANGLED_ADDRESSES:0 CONF:0 0 CONF:0 0 CONF:0 0 CONF:0 0 CONF:0 0 CONF:0 BB SIZE:0
TAG:0 FORMAT:1 ENTANGLED_ADDRESSES:0 CONF:0 0 CONF:0 0 CONF:0 0 CONF:0 0 CONF:0 0 CONF:0 BB SIZE:0
SET:12
TAG:1ab FORMAT:3 ENTANGLED_ADDRESSES:7831 CONF:2 1fa7 CONF:2 2562 CONF:2 0 CONF:0 0 CONF:0 0 CONF:0 BB SIZE:2
TAG:1b FORMAT:1 ENTANGLED_ADDRESSES:0 CONF:0 0 CONF:0 0 CONF:0 0 CONF:0 0 CONF:0 0 CONF:0 BB SIZE:3
TAG:3f9 FORMAT:3 ENTANGLED_ADDRESSES:277c9 CONF:3 46e8 CONF:3 7831 CONF:3 0 CONF:0 0 CONF:0 0 CONF:0 BB SIZE:0
TAG:1fe FORMAT:2 ENTANGLED_ADDRESSES:edfc611 CONF:3 eccd7da CONF:3 0 CONF:0 0 CONF:0 0 CONF:0 0 CONF:0 BB SIZE:d
TAG:3dc FORMAT:3 ENTANGLED_ADDRESSES:23e7e CONF:3 277ed CONF:3 23e80 CONF:2 0 CONF:0 0 CONF:0 0 CONF:0 BB SIZE:1
TAG:1a6 FORMAT:3 ENTANGLED_ADDRESSES:fe62 CONF:1 eb3 CONF:1 f1b CONF:2 0 CONF:0 0 CONF:0 0 CONF:0 BB SIZE:1
TAG:13d FORMAT:3 ENTANGLED_ADDRESSES:245c7 CONF:1 244c7 CONF:3 244c2 CONF:3 0 CONF:0 0 CONF:0 0 CONF:0 BB SIZE:4
TAG:3d1 FORMAT:3 ENTANGLED_ADDRESSES:256d2 CONF:2 4a84 CONF:2 0 CONF:0 0 CONF:0 0 CONF:0 0 CONF:0 BB SIZE:1
TAG:3fd FORMAT:3 ENTANGLED_ADDRESSES:3fe29 CONF:3 3fe2b CONF:3 0 CONF:0 0 CONF:0 0 CONF:0 0 CONF:0 BB SIZE:1
TAG:53e FORMAT:2 ENTANGLED_ADDRESSES:edba6be CONF:2 edca201 CONF:1 0 CONF:0 0 CONF:0 0 CONF:0 0 CONF:0 BB SIZE:3
TAG:164 FORMAT:5 ENTANGLED_ADDRESSES:d1 CONF:1 dc CONF:3 0 CONF:0 0 CONF:0 0 CONF:0 0 CONF:0 BB SIZE:0
TAG:155 FORMAT:5 ENTANGLED_ADDRESSES:2d1 CONF:3 2d3 CONF:3 310 CONF:3 0 CONF:0 0 CONF:0 0 CONF:0 BB SIZE:1
TAG:0 FORMAT:1 ENTANGLED_ADDRESSES:0 CONF:0 0 CONF:0 0 CONF:0 0 CONF:0 0 CONF:0 0 CONF:0 BB SIZE:0
TAG:0 FORMAT:1 ENTANGLED_ADDRESSES:0 CONF:0 0 CONF:0 0 CONF:0 0 CONF:0 0 CONF:0 0 CONF:0 BB SIZE:0
TAG:0 FORMAT:1 ENTANGLED_ADDRESSES:0 CONF:0 0 CONF:0 0 CONF:0 0 CONF:0 0 CONF:0 0 CONF:0 BB SIZE:0
TAG:0 FORMAT:1 ENTANGLED_ADDRESSES:0 CONF:0 0 CONF:0 0 CONF:0 0 CONF:0 0 CONF:0 0 CONF:0 BB SIZE:0
SET:13
TAG:125 FORMAT:3 ENTANGLED_ADDRESSES:9668 CONF:3 141bb CONF:2 175cd CONF:2 0 CONF:0 0 CONF:0 0 CONF:0 BB SIZE:1
TAG:137 FORMAT:3 ENTANGLED_ADDRESSES:fd0e CONF:3 c5 CONF:0 fe CONF:0 38f9 CONF:3 3a7e CONF:3 0 CONF:0 BB SIZE:2
TAG:1a6 FORMAT:3 ENTANGLED_ADDRESSES:eaf CONF:2 18cd CONF:3 fe62 CONF:1 0 CONF:0 0 CONF:0 0 CONF:0 BB SIZE:1
TAG:57e FORMAT:6 ENTANGLED_ADDRESSES:18 CONF:0 0 CONF:0 0 CONF:0 0 CONF:0 0 CONF:0 0 CONF:0 BB SIZE:1
TAG:169 FORMAT:3 ENTANGLED_ADDRESSES:23e7f CONF:1 25536 CONF:3 277ea CONF:2 0 CONF:0 0 CONF:0 0 CONF:0 BB SIZE:2
TAG:3dd FORMAT:5 ENTANGLED_ADDRESSES:261 CONF:0 262 CONF:0 3c799 CONF:0 0 CONF:0 0 CONF:0 0 CONF:0 BB SIZE:2
TAG:143 FORMAT:3 ENTANGLED_ADDRESSES:45d7 CONF:3 30bc CONF:2 45de CONF:3 0 CONF:0 0 CONF:0 0 CONF:0 BB SIZE:3
TAG:3e4 FORMAT:2 ENTANGLED_ADDRESSES:edcaf91 CONF:3 edcaf90 CONF:3 0 CONF:0 0 CONF:0 0 CONF:0 0 CONF:0 BB SIZE:1
TAG:158 FORMAT:3 ENTANGLED_ADDRESSES:2239 CONF:2 3726 CONF:3 371f CONF:2 0 CONF:0 0 CONF:0 0 CONF:0 BB SIZE:3
TAG:16f FORMAT:4 ENTANGLED_ADDRESSES:3d4 CONF:3 3da CONF:3 0 CONF:0 0 CONF:0 0 CONF:0 0 CONF:0 BB SIZE:0
TAG:0 FORMAT:1 ENTANGLED_ADDRESSES:0 CONF:0 0 CONF:0 0 CONF:0 0 CONF:0 0 CONF:0 0 CONF:0 BB SIZE:0
TAG:0 FORMAT:1 ENTANGLED_ADDRESSES:0 CONF:0 0 CONF:0 0 CONF:0 0 CONF:0 0 CONF:0 0 CONF:0 BB SIZE:0
TAG:0 FORMAT:1 ENTANGLED_ADDRESSES:0 CONF:0 0 CONF:0 0 CONF:0 0 CONF:0 0 CONF:0 0 CONF:0 BB SIZE:0
TAG:0 FORMAT:1 ENTANGLED_ADDRESSES:0 CONF:0 0 CONF:0 0 CONF:0 0 CONF:0 0 CONF:0 0 CONF:0 BB SIZE:0
TAG:0 FORMAT:1 ENTANGLED_ADDRESSES:0 CONF:0 0 CONF:0 0 CONF:0 0 CONF:0 0 CONF:0 0 CONF:0 BB SIZE:0
TAG:0 FORMAT:1 ENTANGLED_ADDRESSES:0 CONF:0 0 CONF:0 0 CONF:0 0 CONF:0 0 CONF:0 0 CONF:0 BB SIZE:0
SET:14
TAG:113 FORMAT:3 ENTANGLED_ADDRESSES:14817 CONF:3 14834 CONF:3 9a6c CONF:3 0 CONF:0 0 CONF:0 0 CONF:0 BB SIZE:5
TAG:3d1 FORMAT:5 ENTANGLED_ADDRESSES:383 CONF:1 201 CONF:3 203 CONF:3 238 CONF:2 237 CONF:2 0 CONF:0 BB SIZE:6
TAG:7a FORMAT:1 ENTANGLED_ADDRESSES:0 CONF:0 0 CONF:0 0 CONF:0 0 CONF:0 0 CONF:0 0 CONF:0 BB SIZE:1
TAG:137 FORMAT:5 ENTANGLED_ADDRESSES:243 CONF:3 0 CONF:0 0 CONF:0 0 CONF:0 0 CONF:0 0 CONF:0 BB SIZE:1
TAG:161 FORMAT:4 ENTANGLED_ADDRESSES:5fa CONF:0 0 CONF:0 0 CONF:0 0 CONF:0 0 CONF:0 0 CONF:0 BB SIZE:1
TAG:158 FORMAT:1 ENTANGLED_ADDRESSES:0 CONF:0 0 CONF:0 0 CONF:0 0 CONF:0 0 CONF:0 0 CONF:0 BB SIZE:2
TAG:83 FORMAT:1 ENTANGLED_ADDRESSES:0 CONF:0 0 CONF:0 0 CONF:0 0 CONF:0 0 CONF:0 0 CONF:0 BB SIZE:2
TAG:0 FORMAT:1 ENTANGLED_ADDRESSES:0 CONF:0 0 CONF:0 0 CONF:0 0 CONF:0 0 CONF:0 0 CONF:0 BB SIZE:0
TAG:0 FORMAT:1 ENTANGLED_ADDRESSES:0 CONF:0 0 CONF:0 0 CONF:0 0 CONF:0 0 CONF:0 0 CONF:0 BB SIZE:0
TAG:0 FORMAT:1 ENTANGLED_ADDRESSES:0 CONF:0 0 CONF:0 0 CONF:0 0 CONF:0 0 CONF:0 0 CONF:0 BB SIZE:0
TAG:0 FORMAT:1 ENTANGLED_ADDRESSES:0 CONF:0 0 CONF:0 0 CONF:0 0 CONF:0 0 CONF:0 0 CONF:0 BB SIZE:0
TAG:0 FORMAT:1 ENTANGLED_ADDRESSES:0 CONF:0 0 CONF:0 0 CONF:0 0 CONF:0 0 CONF:0 0 CONF:0 BB SIZE:0
TAG:0 FORMAT:1 ENTANGLED_ADDRESSES:0 CONF:0 0 CONF:0 0 CONF:0 0 CONF:0 0 CONF:0 0 CONF:0 BB SIZE:0
TAG:0 FORMAT:1 ENTANGLED_ADDRESSES:0 CONF:0 0 CONF:0 0 CONF:0 0 CONF:0 0 CONF:0 0 CONF:0 BB SIZE:0
TAG:0 FORMAT:1 ENTANGLED_ADDRESSES:0 CONF:0 0 CONF:0 0 CONF:0 0 CONF:0 0 CONF:0 0 CONF:0 BB SIZE:0
TAG:0 FORMAT:1 ENTANGLED_ADDRESSES:0 CONF:0 0 CONF:0 0 CONF:0 0 CONF:0 0 CONF:0 0 CONF:0 BB SIZE:0
SET:15
TAG:1ab FORMAT:3 ENTANGLED_ADDRESSES:15ba4 CONF:3 f0b3 CONF:1 ef9 CONF:3 0 CONF:0 0 CONF:0 0 CONF:0 BB SIZE:2
TAG:188 FORMAT:3 ENTANGLED_ADDRESSES:9668 CONF:3 100c0 CONF:2 100ba CONF:2 0 CONF:0 0 CONF:0 0 CONF:0 BB SIZE:2
TAG:16d FORMAT:6 ENTANGLED_ADDRESSES:db CONF:1 d5 CONF:3 0 CONF:0 0 CONF:0 0 CONF:0 0 CONF:0 BB SIZE:5
TAG:169 FORMAT:4 ENTANGLED_ADDRESSES:17b9 CONF:0 1031 CONF:0 17ba CONF:3 1034 CONF:3 0 CONF:0 0 CONF:0 BB SIZE:1
TAG:57e FORMAT:2 ENTANGLED_ADDRESSES:edce107 CONF:2 ecc1534 CONF:3 b641 CONF:0 0 CONF:0 0 CONF:0 0 CONF:0 BB SIZE:4
TAG:7a FORMAT:6 ENTANGLED_ADDRESSES:10 CONF:2 0 CONF:0 0 CONF:0 0 CONF:0 0 CONF:0 0 CONF:0 BB SIZE:1
TAG:3dd FORMAT:3 ENTANGLED_ADDRESSES:482c CONF:3 0 CONF:0 0 CONF:0 0 CONF:0 0 CONF:0 0 CONF:0 BB SIZE:2
TAG:3d1 FORMAT:1 ENTANGLED_ADDRESSES:0 CONF:0 0 CONF:0 0 CONF:0 0 CONF:0 0 CONF:0 0 CONF:0 BB SIZE:1
TAG:15b FORMAT:3 ENTANGLED_ADDRESSES:fd0e CONF:3 0 CONF:0 0 CONF:0 0 CONF:0 0 CONF:0 0 CONF:0 BB SIZE:0
TAG:0 FORMAT:6 ENTANGLED_ADDRESSES:2e CONF:3 3f CONF:2 3c CONF:3 0 CONF:0 0 CONF:0 0 CONF:0 BB SIZE:0
TAG:0 FORMAT:1 ENTANGLED_ADDRESSES:0 CONF:0 0 CONF:0 0 CONF:0 0 CONF:0 0 CONF:0 0 CONF:0 BB SIZE:0
TAG:0 FORMAT:1 ENTANGLED_ADDRESSES:0 CONF:0 0 CONF:0 0 CONF:0 0 CONF:0 0 CONF:0 0 CONF:0 BB SIZE:0
TAG:0 FORMAT:1 ENTANGLED_ADDRESSES:0 CONF:0 0 CONF:0 0 CONF:0 0 CONF:0 0 CONF:0 0 CONF:0 BB SIZE:0
TAG:0 FORMAT:1 ENTANGLED_ADDRESSES:0 CONF:0 0 CONF:0 0 CONF:0 0 CONF:0 0 CONF:0 0 CONF:0 BB SIZE:0
TAG:0 FORMAT:1 ENTANGLED_ADDRESSES:0 CONF:0 0 CONF:0 0 CONF:0 0 CONF:0 0 CONF:0 0 CONF:0 BB SIZE:0
TAG:0 FORMAT:1 ENTANGLED_ADDRESSES:0 CONF:0 0 CONF:0 0 CONF:0 0 CONF:0 0 CONF:0 0 CONF:0 BB SIZE:0
SET:16
TAG:134 FORMAT:4 ENTANGLED_ADDRESSES:1b1d CONF:2 4a9 CONF:3 133 CONF:3 12c CONF:3 0 CONF:0 0 CONF:0 BB SIZE:2
TAG:33 FORMAT:3 ENTANGLED_ADDRESSES:3364 CONF:3 11cf5 CONF:3 0 CONF:0 0 CONF:0 0 CONF:0 0 CONF:0 BB SIZE:a
TAG:7b FORMAT:1 ENTANGLED_ADDRESSES:0 CONF:0 0 CONF:0 0 CONF:0 0 CONF:0 0 CONF:0 0 CONF:0 BB SIZE:4
TAG:1a6 FORMAT:3 ENTANGLED_ADDRESSES:18cd CONF:3 c0ed CONF:3 761a CONF:0 0 CONF:0 0 CONF:0 0 CONF:0 BB SIZE:1
TAG:7a FORMAT:3 ENTANGLED_ADDRESSES:4485 CONF:0 c749 CONF:3 14010 CONF:0 0 CONF:0 0 CONF:0 0 CONF:0 BB SIZE:2
TAG:171 FORMAT:3 ENTANGLED_ADDRESSES:767e CONF:2 305a CONF:3 0 CONF:0 0 CONF:0 0 CONF:0 0 CONF:0 BB SIZE:2
TAG:3dd FORMAT:4 ENTANGLED_ADDRESSES:1774 CONF:2 1613 CONF:3 177f CONF:3 178c CONF:2 0 CONF:0 0 CONF:0 BB SIZE:3
TAG:161 FORMAT:3 ENTANGLED_ADDRESSES:93a9 CONF:0 9388 CONF:0 4c6 CONF:0 52d CONF:0 0 CONF:0 0 CONF:0 BB SIZE:2
TAG:162 FORMAT:3 ENTANGLED_ADDRESSES:7ff1 CONF:1 8216 CONF:2 7ff0 CONF:2 0 CONF:0 0 CONF:0 0 CONF:0 BB SIZE:2
TAG:169 FORMAT:3 ENTANGLED_ADDRESSES:23f4d CONF:1 2553d CONF:2 30b2 CONF:3 0 CONF:0 0 CONF:0 0 CONF:0 BB SIZE:0
TAG:57e FORMAT:3 ENTANGLED_ADDRESSES:b641 CONF:3 377e CONF:3 abea CONF:0 0 CONF:0 0 CONF:0 0 CONF:0 BB SIZE:1
TAG:158 FORMAT:3 ENTANGLED_ADDRESSES:548a CONF:3 3a59 CONF:3 5499 CONF:3 0 CONF:0 0 CONF:0 0 CONF:0 BB SIZE:1
TAG:83 FORMAT:3 ENTANGLED_ADDRESSES:efe3 CONF:3 0 CONF:0 0 CONF:0 0 CONF:0 0 CONF:0 0 CONF:0 BB SIZE:4
TAG:3d1 FORMAT:3 ENTANGLED_ADDRESSES:256d2 CONF:1 23f86 CONF:3 228c6 CONF:3 0 CONF:0 0 CONF:0 0 CONF:0 BB SIZE:4
TAG:16f FORMAT:6 ENTANGLED_ADDRESSES:a CONF:3 0 CONF:0 0 CONF:0 0 CONF:0 0 CONF:0 0 CONF:0 BB SIZE:1
TAG:188 FORMAT:1 ENTANGLED_ADDRESSES:0 CONF:0 0 CONF:0 0 CONF:0 0 CONF:0 0 CONF:0 0 CONF:0 BB SIZE:1
SET:17
TAG:70 FORMAT:3 ENTANGLED_ADDRESSES:38c1 CONF:3 76ff CONF:2 0 CONF:0 0 CONF:0 0 CONF:0 0 CONF:0 BB SIZE:6
TAG:146 FORMAT:3 ENTANGLED_ADDRESSES:13d91 CONF:3 13d89 CONF:3 13d84 CONF:3 0 CONF:0 0 CONF:0 0 CONF:0 BB SIZE:1
TAG:43 FORMAT:1 ENTANGLED_ADDRESSES:0 CONF:0 0 CONF:0 0 CONF:0 0 CONF:0 0 CONF:0 0 CONF:0 BB SIZE:8
TAG:117 FORMAT:3 ENTANGLED_ADDRESSES:6b10 CONF:2 1f3c CONF:2 15bf7 CONF:2 0 CONF:0 0 CONF:0 0 CONF:0 BB SIZE:3
TAG:163 FORMAT:3 ENTANGLED_ADDRESSES:4676 CONF:3 7c99 CONF:3 228d0 CONF:1 0 CONF:0 0 CONF:0 0 CONF:0 BB SIZE:0
TAG:169 FORMAT:3 ENTANGLED_ADDRESSES:27766 CONF:2 f7d6 CONF:3 79e5 CONF:0 0 CONF:0 0 CONF:0 0 CONF:0 BB SIZE:3
TAG:158 FORMAT:3 ENTANGLED_ADDRESSES:4676 CONF:0 7c99 CONF:1 0 CONF:0 0 CONF:0 0 CONF:0 0 CONF:0 BB SIZE:3
TAG:164 FORMAT:5 ENTANGLED_ADDRESSES:29a CONF:1 2a3 CONF:1 0 CONF:0 0 CONF:0 0 CONF:0 0 CONF:0 BB SIZE:0
TAG:57e FORMAT:3 ENTANGLED_ADDRESSES:b62e CONF:3 43bc CONF:3 377e CONF:3 0 CONF:0 0 CONF:0 0 CONF:0 BB SIZE:2
TAG:6b FORMAT:6 ENTANGLED_ADDRESSES:9c CONF:2 a2 CONF:3 af CONF:2 0 CONF:0 0 CONF:0 0 CONF:0 BB SIZE:6
TAG:136 FORMAT:3 ENTANGLED_ADDRESSES:12116 CONF:3 1f9e CONF:3 c131 CONF:3 0 CONF:0 0 CONF:0 0 CONF:0 BB SIZE:8
TAG:129 FORMAT:4 ENTANGLED_ADDRESSES:1cd0 CONF:3 1ce0 CONF:0 171a CONF:2 0 CONF:0 0 CONF:0 0 CONF:0 BB SIZE:d
TAG:6f FORMAT:1 ENTANGLED_ADDRESSES:3fffc000020780b CONF:3 ecc13a7 CONF:0 0 CONF:0 0 CONF:0 0 CONF:0 0 CONF:0 BB SIZE:1
TAG:3d4 FORMAT:4 ENTANGLED_ADDRESSES:618 CONF:3 1265 CONF:2 104e CONF:3 1289 CONF:3 0 CONF:0 0 CONF:0 BB SIZE:2
TAG:132 FORMAT:6 ENTANGLED_ADDRESSES:14 CONF:3 0 CONF:0 0 CONF:0 0 CONF:0 0 CONF:0 0 CONF:0 BB SIZE:1
TAG:1a FORMAT:6 ENTANGLED_ADDRESSES:b9 CONF:1 be CONF:3 c5 CONF:0 0 CONF:0 0 CONF:0 0 CONF:0 BB SIZE:2
SET:18
TAG:1fa FORMAT:3 ENTANGLED_ADDRESSES:f0f CONF:3 78 CONF:0 b371 CONF:3 b37a CONF:2 0 CONF:0 0 CONF:0 BB SIZE:a
TAG:6f FORMAT:3 ENTANGLED_ADDRESSES:26c4 CONF:3 d958 CONF:3 db42 CONF:3 0 CONF:0 0 CONF:0 0 CONF:0 BB SIZE:5
TAG:1ab FORMAT:3 ENTANGLED_ADDRESSES:4407 CONF:3 3efb CONF:3 13b61 CONF:3 0 CONF:0 0 CONF:0 0 CONF:0 BB SIZE:1
TAG:2a FORMAT:3 ENTANGLED_ADDRESSES:dc2f CONF:3 11fcf CONF:3 dc27 CONF:2 0 CONF:0 0 CONF:0 0 CONF:0 BB SIZE:1
TAG:83 FORMAT:2 ENTANGLED_ADDRESSES:edc5044 CONF:3 edc5042 CONF:3 0 CONF:0 0 CONF:0 0 CONF:0 0 CONF:0 BB SIZE:4
TAG:136 FORMAT:3 ENTANGLED_ADDRESSES:c131 CONF:3 ca64 CONF:3 61f8 CONF:3 0 CONF:0 0 CONF:0 0 CONF:0 BB SIZE:1
TAG:158 FORMAT:3 ENTANGLED_ADDRESSES:88b6 CONF:3 8870 CONF:3 8877 CONF:3 0 CONF:0 0 CONF:0 0 CONF:0 BB SIZE:2
TAG:3de FORMAT:2 ENTANGLED_ADDRESSES:edcb715 CONF:3 edb5ca9 CONF:3 0 CONF:0 0 CONF:0 0 CONF:0 0 CONF:0 BB SIZE:0
TAG:15a FORMAT:3 ENTANGLED_ADDRESSES:f94b CONF:3 f94d CONF:3 4700 CONF:0 0 CONF:0 0 CONF:0 0 CONF:0 BB SIZE:1
TAG:141 FORMAT:1 ENTANGLED_ADDRESSES:0 CONF:0 0 CONF:0 0 CONF:0 0 CONF:0 0 CONF:0 0 CONF:0 BB SIZE:11
TAG:14d FORMAT:1 ENTANGLED_ADDRESSES:0 CONF:0 0 CONF:0 0 CONF:0 0 CONF:0 0 CONF:0 0 CONF:0 BB SIZE:1
TAG:3d0 FORMAT:4 ENTANGLED_ADDRESSES:1145 CONF:2 1a45 CONF:0 1151 CONF:2 1a48 CONF:3 0 CONF:0 0 CONF:0 BB SIZE:0
TAG:54 FORMAT:3 ENTANGLED_ADDRESSES:7c80 CONF:3 7c82 CONF:3 0 CONF:0 0 CONF:0 0 CONF:0 0 CONF:0 BB SIZE:3
TAG:132 FORMAT:3 ENTANGLED_ADDRESSES:3aae CONF:2 46e2 CONF:3 4ab5 CONF:3 0 CONF:0 0 CONF:0 0 CONF:0 BB SIZE:2
TAG:3d1 FORMAT:4 ENTANGLED_ADDRESSES:15f CONF:3 0 CONF:0 0 CONF:0 0 CONF:0 0 CONF:0 0 CONF:0 BB SIZE:1
TAG:57d FORMAT:5 ENTANGLED_ADDRESSES:1c8 CONF:2 1d8 CONF:3 219 CONF:3 204 CONF:3 0 CONF:0 0 CONF:0 BB SIZE:0
SET:19
TAG:128 FORMAT:4 ENTANGLED_ADDRESSES:133 CONF:2 12e CONF:3 4a9 CONF:3 b3 CONF:2 0 CONF:0 0 CONF:0 BB SIZE:3
TAG:19e FORMAT:2 ENTANGLED_ADDRESSES:ecc1d8b CONF:3 edf891b CONF:3 13ca8 CONF:0 0 CONF:0 0 CONF:0 0 CONF:0 BB SIZE:f
TAG:54 FORMAT:1 ENTANGLED_ADDRESSES:0 CONF:0 0 CONF:0 0 CONF:0 0 CONF:0 0 CONF:0 0 CONF:0 BB SIZE:e
TAG:57e FORMAT:3 ENTANGLED_ADDRESSES:8188 CONF:2 101a8 CONF:2 b5cc CONF:3 b5c5 CONF:0 0 CONF:0 0 CONF:0 BB SIZE:2
TAG:16d FORMAT:3 ENTANGLED_ADDRESSES:edb CONF:2 113c0 CONF:0 0 CONF:0 0 CONF:0 0 CONF:0 0 CONF:0 BB SIZE:5
TAG:1e7 FORMAT:1 ENTANGLED_ADDRESSES:0 CONF:0 0 CONF:0 0 CONF:0 0 CONF:0 0 CONF:0 0 CONF:0 BB SIZE:3
TAG:1a FORMAT:6 ENTANGLED_ADDRESSES:b9 CONF:1 be CONF:1 b8 CONF:2 0 CONF:0 0 CONF:0 0 CONF:0 BB SIZE:4
TAG:3d4 FORMAT:4 ENTANGLED_ADDRESSES:604 CONF:3 5ff CONF:3 620 CONF:3 626 CONF:3 0 CONF:0 0 CONF:0 BB SIZE:6
TAG:3d0 FORMAT:5 ENTANGLED_ADDRESSES:203 CONF:3 38d CONF:3 37c CONF:3 37f CONF:3 238 CONF:3 0 CONF:0 BB SIZE:1
TAG:351 FORMAT:1 ENTANGLED_ADDRESSES:3fffc0000202070 CONF:3 edfc768 CONF:0 0 CONF:0 0 CONF:0 0 CONF:0 0 CONF:0 BB SIZE:0
TAG:545 FORMAT:6 ENTANGLED_ADDRESSES:4f CONF:3 0 CONF:0 0 CONF:0 0 CONF:0 0 CONF:0 0 CONF:0 BB SIZE:0
TAG:3a0 FORMAT:3 ENTANGLED_ADDRESSES:25514 CONF:1 277ea CONF:3 7034 CONF:3 0 CONF:0 0 CONF:0 0 CONF:0 BB SIZE:4
TAG:164 FORMAT:3 ENTANGLED_ADDRESSES:14567 CONF:0 0 CONF:0 0 CONF:0 0 CONF:0 0 CONF:0 0 CONF:0 BB SIZE:1
TAG:0 FORMAT:1 ENTANGLED_ADDRESSES:0 CONF:0 0 CONF:0 0 CONF:0 0 CONF:0 0 CONF:0 0 CONF:0 BB SIZE:0
TAG:0 FORMAT:1 ENTANGLED_ADDRESSES:0 CONF:0 0 CONF:0 0 CONF:0 0 CONF:0 0 CONF:0 0 CONF:0 BB SIZE:0
TAG:0 FORMAT:1 ENTANGLED_ADDRESSES:0 CONF:0 0 CONF:0 0 CONF:0 0 CONF:0 0 CONF:0 0 CONF:0 BB SIZE:0
SET:20
TAG:697 FORMAT:2 ENTANGLED_ADDRESSES:ecce01c CONF:1 ecce5e9 CONF:0 0 CONF:0 0 CONF:0 0 CONF:0 0 CONF:0 BB SIZE:1
TAG:15b FORMAT:6 ENTANGLED_ADDRESSES:46 CONF:0 a9 CONF:1 b6 CONF:0 ac CONF:2 21 CONF:2 3b CONF:0 BB SIZE:0
TAG:5db FORMAT:2 ENTANGLED_ADDRESSES:edb5ca9 CONF:3 edc5044 CONF:1 3c789 CONF:0 0 CONF:0 0 CONF:0 0 CONF:0 BB SIZE:0
TAG:169 FORMAT:6 ENTANGLED_ADDRESSES:a9 CONF:3 0 CONF:0 0 CONF:0 0 CONF:0 0 CONF:0 0 CONF:0 BB SIZE:1
TAG:7b FORMAT:1 ENTANGLED_ADDRESSES:0 CONF:0 0 CONF:0 0 CONF:0 0 CONF:0 0 CONF:0 0 CONF:0 BB SIZE:6
TAG:43 FORMAT:3 ENTANGLED_ADDRESSES:175da CONF:3 175eb CONF:2 10225 CONF:3 0 CONF:0 0 CONF:0 0 CONF:0 BB SIZE:7
TAG:136 FORMAT:3 ENTANGLED_ADDRESSES:12116 CONF:3 ca64 CONF:3 61f8 CONF:3 0 CONF:0 0 CONF:0 0 CONF:0 BB SIZE:2
TAG:1e4 FORMAT:1 ENTANGLED_ADDRESSES:0 CONF:0 0 CONF:0 0 CONF:0 0 CONF:0 0 CONF:0 0 CONF:0 BB SIZE:3
TAG:1e7 FORMAT:1 ENTANGLED_ADDRESSES:0 CONF:0 0 CONF:0 0 CONF:0 0 CONF:0 0 CONF:0 0 CONF:0 BB SIZE:2
TAG:154 FORMAT:3 ENTANGLED_ADDRESSES:3301 CONF:3 c0f0 CONF:3 0 CONF:0 0 CONF:0 0 CONF:0 0 CONF:0 BB SIZE:1
TAG:588 FORMAT:2 ENTANGLED_ADDRESSES:edc271d CONF:2 edbc90f CONF:2 edd04af CONF:0 0 CONF:0 0 CONF:0 0 CONF:0 BB SIZE:0
TAG:13d FORMAT:3 ENTANGLED_ADDRESSES:45c6 CONF:3 30a7 CONF:0 46a6 CONF:0 0 CONF:0 0 CONF:0 0 CONF:0 BB SIZE:2
TAG:545 FORMAT:6 ENTANGLED_ADDRESSES:44 CONF:2 0 CONF:0 0 CONF:0 0 CONF:0 0 CONF:0 0 CONF:0 BB SIZE:1
TAG:3a0 FORMAT:3 ENTANGLED_ADDRESSES:277ea CONF:2 2553d CONF:2 2545f CONF:3 0 CONF:0 0 CONF:0 0 CONF:0 BB SIZE:3
TAG:0 FORMAT:1 ENTANGLED_ADDRESSES:0 CONF:0 0 CONF:0 0 CONF:0 0 CONF:0 0 CONF:0 0 CONF:0 BB SIZE:0
TAG:0 FORMAT:1 ENTANGLED_ADDRESSES:0 CONF:0 0 CONF:0 0 CONF:0 0 CONF:0 0 CONF:0 0 CONF:0 BB SIZE:0
SET:21
TAG:57d FORMAT:4 ENTANGLED_ADDRESSES:1641 CONF:3 1631 CONF:3 161f CONF:0 1bd7 CONF:3 0 CONF:0 0 CONF:0 BB SIZE:0
TAG:43 FORMAT:6 ENTANGLED_ADDRESSES:ea CONF:3 cd CONF:1 ce CONF:3 da CONF:2 eb CONF:2 0 CONF:0 BB SIZE:4
TAG:19f FORMAT:6 ENTANGLED_ADDRESSES:ae CONF:0 3a CONF:1 0 CONF:0 0 CONF:0 0 CONF:0 0 CONF:0 BB SIZE:1
TAG:134 FORMAT:4 ENTANGLED_ADDRESSES:12e CONF:3 1b1d CONF:0 1b13 CONF:3 14a CONF:3 0 CONF:0 0 CONF:0 BB SIZE:6
TAG:1e4 FORMAT:1 ENTANGLED_ADDRESSES:0 CONF:0 0 CONF:0 0 CONF:0 0 CONF:0 0 CONF:0 0 CONF:0 BB SIZE:9
TAG:1e7 FORMAT:1 ENTANGLED_ADDRESSES:0 CONF:0 0 CONF:0 0 CONF:0 0 CONF:0 0 CONF:0 0 CONF:0 BB SIZE:6
TAG:54 FORMAT:1 ENTANGLED_ADDRESSES:0 CONF:0 0 CONF:0 0 CONF:0 0 CONF:0 0 CONF:0 0 CONF:0 BB SIZE:1
TAG:164 FORMAT:1 ENTANGLED_ADDRESSES:0 CONF:0 0 CONF:0 0 CONF:0 0 CONF:0 0 CONF:0 0 CONF:0 BB SIZE:1
TAG:1c2 FORMAT:3 ENTANGLED_ADDRESSES:880f CONF:3 8f52 CONF:3 2251 CONF:3 0 CONF:0 0 CONF:0 0 CONF:0 BB SIZE:d
TAG:50f FORMAT:2 ENTANGLED_ADDRESSES:edbc8f1 CONF:1 0 CONF:0 0 CONF:0 0 CONF:0 0 CONF:0 0 CONF:0 BB SIZE:2
TAG:57e FORMAT:3 ENTANGLED_ADDRESSES:377e CONF:2 b641 CONF:2 b631 CONF:2 0 CONF:0 0 CONF:0 0 CONF:0 BB SIZE:4
TAG:132 FORMAT:4 ENTANGLED_ADDRESSES:1a82 CONF:2 0 CONF:0 0 CONF:0 0 CONF:0 0 CONF:0 0 CONF:0 BB SIZE:6
TAG:83 FORMAT:6 ENTANGLED_ADDRESSES:80 CONF:3 6f CONF:3 79 CONF:3 0 CONF:0 0 CONF:0 0 CONF:0 BB SIZE:8
TAG:3de FORMAT:2 ENTANGLED_ADDRESSES:edcae7e CONF:2 edcac77 CONF:3 0 CONF:0 0 CONF:0 0 CONF:0 0 CONF:0 BB SIZE:2
TAG:13e FORMAT:3 ENTANGLED_ADDRESSES:c3a9 CONF:1 29cd CONF:3 e471 CONF:3 0 CONF:0 0 CONF:0 0 CONF:0 BB SIZE:3
TAG:7a FORMAT:3 ENTANGLED_ADDRESSES:14011 CONF:0 1ba7 CONF:3 0 CONF:0 0 CONF:0 0 CONF:0 0 CONF:0 BB SIZE:2
SET:22
TAG:697 FORMAT:3 ENTANGLED_ADDRESSES:3f412 CONF:0 3f413 CONF:2 3c671 CONF:0 0 CONF:0 0 CONF:0 0 CONF:0 BB SIZE:2
TAG:54 FORMAT:1 ENTANGLED_ADDRESSES:0 CONF:0 0 CONF:0 0 CONF:0 0 CONF:0 0 CONF:0 0 CONF:0 BB SIZE:3
TAG:128 FORMAT:3 ENTANGLED_ADDRESSES:20b3 CONF:3 46e2 CONF:0 277c7 CONF:0 0 CONF:0 0 CONF:0 0 CONF:0 BB SIZE:1
TAG:169 FORMAT:3 ENTANGLED_ADDRESSES:79e5 CONF:3 f7f0 CONF:3 27766 CONF:3 0 CONF:0 0 CONF:0 0 CONF:0 BB SIZE:3
TAG:1d4 FORMAT:3 ENTANGLED_ADDRESSES:a46d CONF:3 dd2f CONF:3 ffa3 CONF:3 0 CONF:0 0 CONF:0 0 CONF:0 BB SIZE:5
TAG:134 FORMAT:3 ENTANGLED_ADDRESSES:f7c6 CONF:1 3b13 CONF:3 212c CONF:3 0 CONF:0 0 CONF:0 0 CONF:0 BB SIZE:7
TAG:1ab FORMAT:3 ENTANGLED_ADDRESSES:a6c5 CONF:2 a6ca CONF:2 146b4 CONF:3 0 CONF:0 0 CONF:0 0 CONF:0 BB SIZE:0
TAG:1a8 FORMAT:1 ENTANGLED_ADDRESSES:0 CONF:0 0 CONF:0 0 CONF:0 0 CONF:0 0 CONF:0 0 CONF:0 BB SIZE:1
TAG:1ff FORMAT:3 ENTANGLED_ADDRESSES:b7fa CONF:1 1533 CONF:2 0 CONF:0 0 CONF:0 0 CONF:0 0 CONF:0 BB SIZE:1
TAG:7a FORMAT:3 ENTANGLED_ADDRESSES:1ba7 CONF:2 1bac CONF:3 1bab CONF:3 0 CONF:0 0 CONF:0 0 CONF:0 BB SIZE:1
TAG:50f FORMAT:6 ENTANGLED_ADDRESSES:79 CONF:3 0 CONF:0 0 CONF:0 0 CONF:0 0 CONF:0 0 CONF:0 BB SIZE:0
TAG:7e FORMAT:6 ENTANGLED_ADDRESSES:52 CONF:3 0 CONF:0 0 CONF:0 0 CONF:0 0 CONF:0 0 CONF:0 BB SIZE:0
TAG:161 FORMAT:3 ENTANGLED_ADDRESSES:65a9 CONF:2 0 CONF:0 0 CONF:0 0 CONF:0 0 CONF:0 0 CONF:0 BB SIZE:2
TAG:57e FORMAT:6 ENTANGLED_ADDRESSES:18 CONF:2 0 CONF:0 0 CONF:0 0 CONF:0 0 CONF:0 0 CONF:0 BB SIZE:1
TAG:0 FORMAT:1 ENTANGLED_ADDRESSES:0 CONF:0 0 CONF:0 0 CONF:0 0 CONF:0 0 CONF:0 0 CONF:0 BB SIZE:0
TAG:0 FORMAT:1 ENTANGLED_ADDRESSES:0 CONF:0 0 CONF:0 0 CONF:0 0 CONF:0 0 CONF:0 0 CONF:0 BB SIZE:0
SET:23
TAG:134 FORMAT:3 ENTANGLED_ADDRESSES:f9df CONF:0 3b26 CONF:3 f9f6 CONF:2 0 CONF:0 0 CONF:0 0 CONF:0 BB SIZE:1
TAG:15a FORMAT:3 ENTANGLED_ADDRESSES:20bb CONF:3 4bad CONF:3 38fe CONF:3 4bc6 CONF:0 0 CONF:0 0 CONF:0 BB SIZE:1
TAG:113 FORMAT:3 ENTANGLED_ADDRESSES:1f9a CONF:3 6b33 CONF:2 3dc0 CONF:3 0 CONF:0 0 CONF:0 0 CONF:0 BB SIZE:9
TAG:117 FORMAT:4 ENTANGLED_ADDRESSES:b10 CONF:2 0 CONF:0 0 CONF:0 0 CONF:0 0 CONF:0 0 CONF:0 BB SIZE:2
TAG:1b4 FORMAT:3 ENTANGLED_ADDRESSES:e929 CONF:2 1533 CONF:3 e96a CONF:3 0 CONF:0 0 CONF:0 0 CONF:0 BB SIZE:10
TAG:136 FORMAT:3 ENTANGLED_ADDRESSES:fe66 CONF:3 1f9e CONF:3 fe60 CONF:3 0 CONF:0 0 CONF:0 0 CONF:0 BB SIZE:7
TAG:16d FORMAT:3 ENTANGLED_ADDRESSES:d5b5 CONF:0 0 CONF:0 0 CONF:0 0 CONF:0 0 CONF:0 0 CONF:0 BB SIZE:6
TAG:1e4 FORMAT:1 ENTANGLED_ADDRESSES:0 CONF:0 0 CONF:0 0 CONF:0 0 CONF:0 0 CONF:0 0 CONF:0 BB SIZE:1
TAG:1e7 FORMAT:1 ENTANGLED_ADDRESSES:0 CONF:0 0 CONF:0 0 CONF:0 0 CONF:0 0 CONF:0 0 CONF:0 BB SIZE:2
TAG:13d FORMAT:3 ENTANGLED_ADDRESSES:45de CONF:0 45cf CONF:0 4599 CONF:0 0 CONF:0 0 CONF:0 0 CONF:0 BB SIZE:1
TAG:1c2 FORMAT:4 ENTANGLED_ADDRESSES:16d2 CONF:3 0 CONF:0 0 CONF:0 0 CONF:0 0 CONF:0 0 CONF:0 BB SIZE:b
TAG:3de FORMAT:2 ENTANGLED_ADDRESSES:edcb72b CONF:3 edbc6fa CONF:3 0 CONF:0 0 CONF:0 0 CONF:0 0 CONF:0 BB SIZE:1
TAG:545 FORMAT:1 ENTANGLED_ADDRESSES:0 CONF:0 0 CONF:0 0 CONF:0 0 CONF:0 0 CONF:0 0 CONF:0 BB SIZE:2
TAG:0 FORMAT:1 ENTANGLED_ADDRESSES:0 CONF:0 0 CONF:0 0 CONF:0 0 CONF:0 0 CONF:0 0 CONF:0 BB SIZE:0
TAG:0 FORMAT:1 ENTANGLED_ADDRESSES:0 CONF:0 0 CONF:0 0 CONF:0 0 CONF:0 0 CONF:0 0 CONF:0 BB SIZE:0
TAG:0 FORMAT:1 ENTANGLED_ADDRESSES:0 CONF:0 0 CONF:0 0 CONF:0 0 CONF:0 0 CONF:0 0 CONF:0 BB SIZE:0
SET:24
TAG:1c2 FORMAT:3 ENTANGLED_ADDRESSES:8815 CONF:0 681d CONF:2 8f52 CONF:2 0 CONF:0 0 CONF:0 0 CONF:0 BB SIZE:c
TAG:1ae FORMAT:3 ENTANGLED_ADDRESSES:88bc CONF:2 23e46 CONF:1 79b9 CONF:1 0 CONF:0 0 CONF:0 0 CONF:0 BB SIZE:6
TAG:1a4 FORMAT:3 ENTANGLED_ADDRESSES:7831 CONF:2 fcc8 CONF:3 15470 CONF:3 0 CONF:0 0 CONF:0 0 CONF:0 BB SIZE:5
TAG:16c FORMAT:4 ENTANGLED_ADDRESSES:1c1d CONF:2 0 CONF:0 0 CONF:0 0 CONF:0 0 CONF:0 0 CONF:0 BB SIZE:1
TAG:1e7 FORMAT:6 ENTANGLED_ADDRESSES:4f CONF:0 0 CONF:0 0 CONF:0 0 CONF:0 0 CONF:0 0 CONF:0 BB SIZE:9
TAG:3d1 FORMAT:6 ENTANGLED_ADDRESSES:2a CONF:0 38 CONF:2 37 CONF:2 0 CONF:0 0 CONF:0 0 CONF:0 BB SIZE:9
TAG:1a FORMAT:2 ENTANGLED_ADDRESSES:edd0b31 CONF:3 edc377f CONF:3 0 CONF:0 0 CONF:0 0 CONF:0 0 CONF:0 BB SIZE:1
TAG:83 FORMAT:5 ENTANGLED_ADDRESSES:79 CONF:2 18d CONF:2 0 CONF:0 0 CONF:0 0 CONF:0 0 CONF:0 BB SIZE:5
TAG:50f FORMAT:1 ENTANGLED_ADDRESSES:0 CONF:0 0 CONF:0 0 CONF:0 0 CONF:0 0 CONF:0 0 CONF:0 BB SIZE:1
TAG:379 FORMAT:3 ENTANGLED_ADDRESSES:3c7af CONF:2 0 CONF:0 0 CONF:0 0 CONF:0 0 CONF:0 0 CONF:0 BB SIZE:2
TAG:15a FORMAT:5 ENTANGLED_ADDRESSES:340 CONF:2 343 CONF:0 0 CONF:0 0 CONF:0 0 CONF:0 0 CONF:0 BB SIZE:0
TAG:3de FORMAT:1 ENTANGLED_ADDRESSES:0 CONF:0 0 CONF:0 0 CONF:0 0 CONF:0 0 CONF:0 0 CONF:0 BB SIZE:1
TAG:7e FORMAT:3 ENTANGLED_ADDRESSES:1454a CONF:3 cde CONF:3 0 CONF:0 0 CONF:0 0 CONF:0 0 CONF:0 BB SIZE:2
TAG:0 FORMAT:1 ENTANGLED_ADDRESSES:0 CONF:0 0 CONF:0 0 CONF:0 0 CONF:0 0 CONF:0 0 CONF:0 BB SIZE:0
TAG:0 FORMAT:1 ENTANGLED_ADDRESSES:0 CONF:0 0 CONF:0 0 CONF:0 0 CONF:0 0 CONF:0 0 CONF:0 BB SIZE:0
TAG:0 FORMAT:1 ENTANGLED_ADDRESSES:0 CONF:0 0 CONF:0 0 CONF:0 0 CONF:0 0 CONF:0 0 CONF:0 BB SIZE:0
SET:25
TAG:1f7 FORMAT:2 ENTANGLED_ADDRESSES:ecce90d CONF:2 e8e49bc CONF:3 0 CONF:0 0 CONF:0 0 CONF:0 0 CONF:0 BB SIZE:5
TAG:70 FORMAT:6 ENTANGLED_ADDRESSES:8e CONF:3 53 CONF:3 51 CONF:3 0 CONF:0 0 CONF:0 0 CONF:0 BB SIZE:4
TAG:18f FORMAT:3 ENTANGLED_ADDRESSES:3dc0 CONF:2 4f9c CONF:1 0 CONF:0 0 CONF:0 0 CONF:0 0 CONF:0 BB SIZE:4
TAG:117 FORMAT:3 ENTANGLED_ADDRESSES:6f8d CONF:2 6f8f CONF:2 15bf7 CONF:3 0 CONF:0 0 CONF:0 0 CONF:0 BB SIZE:1
TAG:191 FORMAT:3 ENTANGLED_ADDRESSES:c693 CONF:3 a53c CONF:2 0 CONF:0 0 CONF:0 0 CONF:0 0 CONF:0 BB SIZE:4
TAG:1bf FORMAT:2 ENTANGLED_ADDRESSES:ecce01b CONF:0 edcba33 CONF:3 0 CONF:0 0 CONF:0 0 CONF:0 0 CONF:0 BB SIZE:1
TAG:19f FORMAT:6 ENTANGLED_ADDRESSES:3a CONF:2 8d CONF:3 9a CONF:0 0 CONF:0 0 CONF:0 0 CONF:0 BB SIZE:1
TAG:50f FORMAT:2 ENTANGLED_ADDRESSES:edcb6e2 CONF:0 edbc90f CONF:2 0 CONF:0 0 CONF:0 0 CONF:0 0 CONF:0 BB SIZE:1
TAG:3e5 FORMAT:2 ENTANGLED_ADDRESSES:edb7d84 CONF:3 edc114c CONF:3 0 CONF:0 0 CONF:0 0 CONF:0 0 CONF:0 BB SIZE:1
TAG:1ff FORMAT:2 ENTANGLED_ADDRESSES:edfc789 CONF:3 edb5ca9 CONF:3 0 CONF:0 0 CONF:0 0 CONF:0 0 CONF:0 BB SIZE:1
TAG:6f FORMAT:2 ENTANGLED_ADDRESSES:eccf6ef CONF:2 e8e49df CONF:2 13a7 CONF:0 0 CONF:0 0 CONF:0 0 CONF:0 BB SIZE:1
TAG:13d FORMAT:3 ENTANGLED_ADDRESSES:245d2 CONF:2 2455c CONF:3 245ce CONF:2 0 CONF:0 0 CONF:0 0 CONF:0 BB SIZE:1
TAG:3d0 FORMAT:5 ENTANGLED_ADDRESSES:237 CONF:2 38c CONF:3 203 CONF:2 22a CONF:1 0 CONF:0 0 CONF:0 BB SIZE:6
TAG:3de FORMAT:2 ENTANGLED_ADDRESSES:edcaeba CONF:2 edbfe7d CONF:3 0 CONF:0 0 CONF:0 0 CONF:0 0 CONF:0 BB SIZE:1
TAG:57e FORMAT:4 ENTANGLED_ADDRESSES:1619 CONF:1 1632 CONF:1 bee CONF:3 15d2 CONF:0 0 CONF:0 0 CONF:0 BB SIZE:1
TAG:164 FORMAT:3 ENTANGLED_ADDRESSES:88bc CONF:3 0 CONF:0 0 CONF:0 0 CONF:0 0 CONF:0 0 CONF:0 BB SIZE:0
SET:26
TAG:1ff FORMAT:3 ENTANGLED_ADDRESSES:c337 CONF:2 b780 CONF:3 e01a CONF:3 0 CONF:0 0 CONF:0 0 CONF:0 BB SIZE:3
TAG:1e4 FORMAT:6 ENTANGLED_ADDRESSES:a5 CONF:3 0 CONF:0 0 CONF:0 0 CONF:0 0 CONF:0 0 CONF:0 BB SIZE:3
TAG:50f FORMAT:2 ENTANGLED_ADDRESSES:edbc8f9 CONF:3 0 CONF:0 0 CONF:0 0 CONF:0 0 CONF:0 0 CONF:0 BB SIZE:1
TAG:57d FORMAT:3 ENTANGLED_ADDRESSES:3891b CONF:2 1bd7 CONF:0 b624 CONF:3 b620 CONF:3 0 CONF:0 0 CONF:0 BB SIZE:0
TAG:3d5 FORMAT:4 ENTANGLED_ADDRESSES:137d CONF:2 1a32 CONF:2 1a3d CONF:2 1a42 CONF:2 0 CONF:0 0 CONF:0 BB SIZE:3
TAG:135 FORMAT:3 ENTANGLED_ADDRESSES:4650 CONF:2 45cf CONF:2 0 CONF:0 0 CONF:0 0 CONF:0 0 CONF:0 BB SIZE:1
TAG:161 FORMAT:4 ENTANGLED_ADDRESSES:5b4 CONF:1 c47 CONF:3 68d CONF:3 698 CONF:3 0 CONF:0 0 CONF:0 BB SIZE:3
TAG:57e FORMAT:2 ENTANGLED_ADDRESSES:edcb57e CONF:1 edb5caa CONF:3 3c661 CONF:0 0 CONF:0 0 CONF:0 0 CONF:0 BB SIZE:1
TAG:7e FORMAT:6 ENTANGLED_ADDRESSES:48 CONF:3 65 CONF:3 0 CONF:0 0 CONF:0 0 CONF:0 0 CONF:0 BB SIZE:1
TAG:544 FORMAT:1 ENTANGLED_ADDRESSES:0 CONF:0 0 CONF:0 0 CONF:0 0 CONF:0 0 CONF:0 0 CONF:0 BB SIZE:2
TAG:167 FORMAT:3 ENTANGLED_ADDRESSES:93a3 CONF:0 0 CONF:0 0 CONF:0 0 CONF:0 0 CONF:0 0 CONF:0 BB SIZE:0
TAG:164 FORMAT:5 ENTANGLED_ADDRESSES:3b1 CONF:0 0 CONF:0 0 CONF:0 0 CONF:0 0 CONF:0 0 CONF:0 BB SIZE:0
TAG:33 FORMAT:1 ENTANGLED_ADDRESSES:0 CONF:0 0 CONF:0 0 CONF:0 0 CONF:0 0 CONF:0 0 CONF:0 BB SIZE:4
TAG:0 FORMAT:1 ENTANGLED_ADDRESSES:0 CONF:0 0 CONF:0 0 CONF:0 0 CONF:0 0 CONF:0 0 CONF:0 BB SIZE:0
TAG:0 FORMAT:1 ENTANGLED_ADDRESSES:0 CONF:0 0 CONF:0 0 CONF:0 0 CONF:0 0 CONF:0 0 CONF:0 BB SIZE:0
TAG:0 FORMAT:1 ENTANGLED_ADDRESSES:0 CONF:0 0 CONF:0 0 CONF:0 0 CONF:0 0 CONF:0 0 CONF:0 BB SIZE:0
SET:27
TAG:5db FORMAT:2 ENTANGLED_ADDRESSES:edb5ca9 CONF:3 ecce96a CONF:3 edce105 CONF:0 0 CONF:0 0 CONF:0 0 CONF:0 BB SIZE:1
TAG:351 FORMAT:2 ENTANGLED_ADDRESSES:edfc753 CONF:3 edfc671 CONF:3 0 CONF:0 0 CONF:0 0 CONF:0 0 CONF:0 BB SIZE:0
TAG:15b FORMAT:1 ENTANGLED_ADDRESSES:3fffedcabc2 CONF:3 0 CONF:0 0 CONF:0 0 CONF:0 0 CONF:0 0 CONF:0 BB SIZE:1
TAG:1ab FORMAT:3 ENTANGLED_ADDRESSES:3905 CONF:0 a94f CONF:2 0 CONF:0 0 CONF:0 0 CONF:0 0 CONF:0 BB SIZE:1
TAG:16c FORMAT:3 ENTANGLED_ADDRESSES:f89 CONF:3 2e7b CONF:3 0 CONF:0 0 CONF:0 0 CONF:0 0 CONF:0 BB SIZE:3
TAG:136 FORMAT:3 ENTANGLED_ADDRESSES:4880 CONF:3 b3cb CONF:3 c98b CONF:3 0 CONF:0 0 CONF:0 0 CONF:0 BB SIZE:7
TAG:57d FORMAT:2 ENTANGLED_ADDRESSES:edcb5cc CONF:3 ecc0f93 CONF:3 0 CONF:0 0 CONF:0 0 CONF:0 0 CONF:0 BB SIZE:2
TAG:164 FORMAT:3 ENTANGLED_ADDRESSES:79e9 CONF:3 3eb2 CONF:3 f7ea CONF:0 0 CONF:0 0 CONF:0 0 CONF:0 BB SIZE:2
TAG:50f FORMAT:2 ENTANGLED_ADDRESSES:edbe52e CONF:3 2408 CONF:0 edd04af CONF:3 0 CONF:0 0 CONF:0 0 CONF:0 BB SIZE:1
TAG:1a8 FORMAT:1 ENTANGLED_ADDRESSES:0 CONF:0 0 CONF:0 0 CONF:0 0 CONF:0 0 CONF:0 0 CONF:0 BB SIZE:1
TAG:3d4 FORMAT:3 ENTANGLED_ADDRESSES:245ce CONF:3 30b1 CONF:3 2526c CONF:1 0 CONF:0 0 CONF:0 0 CONF:0 BB SIZE:1
TAG:12e FORMAT:3 ENTANGLED_ADDRESSES:5a6 CONF:2 5b3 CONF:2 0 CONF:0 0 CONF:0 0 CONF:0 0 CONF:0 BB SIZE:4
TAG:167 FORMAT:3 ENTANGLED_ADDRESSES:698 CONF:2 1158a CONF:2 52b CONF:0 0 CONF:0 0 CONF:0 0 CONF:0 BB SIZE:1
TAG:50a FORMAT:2 ENTANGLED_ADDRESSES:edcda9d CONF:3 edbd3b7 CONF:3 0 CONF:0 0 CONF:0 0 CONF:0 0 CONF:0 BB SIZE:2
TAG:155 FORMAT:6 ENTANGLED_ADDRESSES:c5 CONF:1 c6 CONF:2 c2 CONF:2 c7 CONF:2 a0 CONF:3 0 CONF:0 BB SIZE:3
TAG:544 FORMAT:3 ENTANGLED_ADDRESSES:2775 CONF:3 0 CONF:0 0 CONF:0 0 CONF:0 0 CONF:0 0 CONF:0 BB SIZE:1
SET:28
TAG:15a FORMAT:1 ENTANGLED_ADDRESSES:3fffedcabea CONF:3 f94d CONF:0 4bc7 CONF:0 4afe CONF:0 3c4 CONF:0 0 CONF:0 BB SIZE:3
TAG:50f FORMAT:2 ENTANGLED_ADDRESSES:edc271d CONF:2 edbc8f9 CONF:3 0 CONF:0 0 CONF:0 0 CONF:0 0 CONF:0 BB SIZE:1
TAG:159 FORMAT:3 ENTANGLED_ADDRESSES:1fa8 CONF:3 73b7 CONF:3 1f9a CONF:3 0 CONF:0 0 CONF:0 0 CONF:0 BB SIZE:1
TAG:1bf FORMAT:3 ENTANGLED_ADDRESSES:14544 CONF:1 ddab CONF:1 c74e CONF:1 0 CONF:0 0 CONF:0 0 CONF:0 BB SIZE:3
TAG:16d FORMAT:3 ENTANGLED_ADDRESSES:113c0 CONF:0 c0ed CONF:0 efc CONF:2 0 CONF:0 0 CONF:0 0 CONF:0 BB SIZE:4
TAG:3e5 FORMAT:1 ENTANGLED_ADDRESSES:0 CONF:0 0 CONF:0 0 CONF:0 0 CONF:0 0 CONF:0 0 CONF:0 BB SIZE:5
TAG:187 FORMAT:3 ENTANGLED_ADDRESSES:4558 CONF:3 4578 CONF:2 356d CONF:3 0 CONF:0 0 CONF:0 0 CONF:0 BB SIZE:c
TAG:3d0 FORMAT:5 ENTANGLED_ADDRESSES:380 CONF:2 22d CONF:3 0 CONF:0 0 CONF:0 0 CONF:0 0 CONF:0 BB SIZE:3
TAG:143 FORMAT:3 ENTANGLED_ADDRESSES:4650 CONF:3 30c6 CONF:2 45d2 CONF:3 0 CONF:0 0 CONF:0 0 CONF:0 BB SIZE:1
TAG:141 FORMAT:3 ENTANGLED_ADDRESSES:f5db CONF:3 0 CONF:0 0 CONF:0 0 CONF:0 0 CONF:0 0 CONF:0 BB SIZE:19
TAG:50a FORMAT:3 ENTANGLED_ADDRESSES:ac7f CONF:3 da6a CONF:3 da65 CONF:3 0 CONF:0 0 CONF:0 0 CONF:0 BB SIZE:3
TAG:13d FORMAT:3 ENTANGLED_ADDRESSES:25efe CONF:3 25867 CONF:2 25f1f CONF:0 0 CONF:0 0 CONF:0 0 CONF:0 BB SIZE:3
TAG:0 FORMAT:6 ENTANGLED_ADDRESSES:3c CONF:3 0 CONF:0 0 CONF:0 0 CONF:0 0 CONF:0 0 CONF:0 BB SIZE:0
TAG:15b FORMAT:3 ENTANGLED_ADDRESSES:4b34 CONF:3 4b23 CONF:3 21f1 CONF:3 46ea CONF:0 0 CONF:0 0 CONF:0 BB SIZE:1
TAG:130 FORMAT:2 ENTANGLED_ADDRESSES:ecc6a83 CONF:2 e8e4a5a CONF:3 0 CONF:0 0 CONF:0 0 CONF:0 0 CONF:0 BB SIZE:2
TAG:5db FORMAT:3 ENTANGLED_ADDRESSES:3891b CONF:3 377e CONF:0 10216 CONF:0 0 CONF:0 0 CONF:0 0 CONF:0 BB SIZE:0
SET:29
TAG:1bf FORMAT:2 ENTANGLED_ADDRESSES:ecc2a5e CONF:1 edff411 CONF:1 eccc333 CONF:0 0 CONF:0 0 CONF:0 0 CONF:0 BB SIZE:5
TAG:1e2 FORMAT:3 ENTANGLED_ADDRESSES:38c1 CONF:2 aca4 CONF:3 e1ee CONF:3 0 CONF:0 0 CONF:0 0 CONF:0 BB SIZE:10
TAG:1f7 FORMAT:3 ENTANGLED_ADDRESSES:b754 CONF:2 1533 CONF:3 c352 CONF:3 0 CONF:0 0 CONF:0 0 CONF:0 BB SIZE:3
TAG:169 FORMAT:3 ENTANGLED_ADDRESSES:7834 CONF:3 20bb CONF:3 0 CONF:0 0 CONF:0 0 CONF:0 0 CONF:0 BB SIZE:1
TAG:1a4 FORMAT:3 ENTANGLED_ADDRESSES:be43 CONF:2 15470 CONF:2 15477 CONF:3 0 CONF:0 0 CONF:0 0 CONF:0 BB SIZE:5
TAG:1d7 FORMAT:3 ENTANGLED_ADDRESSES:d0fb CONF:3 f23c CONF:1 809c CONF:3 0 CONF:0 0 CONF:0 0 CONF:0 BB SIZE:1
TAG:57e FORMAT:4 ENTANGLED_ADDRESSES:1580 CONF:0 1bdf CONF:3 157e CONF:0 0 CONF:0 0 CONF:0 0 CONF:0 BB SIZE:1
TAG:1ff FORMAT:2 ENTANGLED_ADDRESSES:edcf640 CONF:2 edcf652 CONF:2 0 CONF:0 0 CONF:0 0 CONF:0 0 CONF:0 BB SIZE:2
TAG:545 FORMAT:5 ENTANGLED_ADDRESSES:5f CONF:2 0 CONF:0 0 CONF:0 0 CONF:0 0 CONF:0 0 CONF:0 BB SIZE:3
TAG:50a FORMAT:2 ENTANGLED_ADDRESSES:edbd3d1 CONF:3 da65 CONF:0 edcda67 CONF:3 0 CONF:0 0 CONF:0 0 CONF:0 BB SIZE:3
TAG:379 FORMAT:1 ENTANGLED_ADDRESSES:0 CONF:0 0 CONF:0 0 CONF:0 0 CONF:0 0 CONF:0 0 CONF:0 BB SIZE:5
TAG:57a FORMAT:2 ENTANGLED_ADDRESSES:edbc90f CONF:2 edd04af CONF:2 0 CONF:0 0 CONF:0 0 CONF:0 0 CONF:0 BB SIZE:2
TAG:0 FORMAT:1 ENTANGLED_ADDRESSES:0 CONF:0 0 CONF:0 0 CONF:0 0 CONF:0 0 CONF:0 0 CONF:0 BB SIZE:0
TAG:0 FORMAT:1 ENTANGLED_ADDRESSES:0 CONF:0 0 CONF:0 0 CONF:0 0 CONF:0 0 CONF:0 0 CONF:0 BB SIZE:0
TAG:0 FORMAT:1 ENTANGLED_ADDRESSES:0 CONF:0 0 CONF:0 0 CONF:0 0 CONF:0 0 CONF:0 0 CONF:0 BB SIZE:0
TAG:0 FORMAT:1 ENTANGLED_ADDRESSES:0 CONF:0 0 CONF:0 0 CONF:0 0 CONF:0 0 CONF:0 0 CONF:0 BB SIZE:0
SET:30
TAG:125 FORMAT:3 ENTANGLED_ADDRESSES:fc79 CONF:3 12802 CONF:3 3ba0 CONF:3 0 CONF:0 0 CONF:0 0 CONF:0 BB SIZE:e
TAG:1ab FORMAT:3 ENTANGLED_ADDRESSES:12abb CONF:3 12ab5 CONF:2 12a84 CONF:2 0 CONF:0 0 CONF:0 0 CONF:0 BB SIZE:5
TAG:33 FORMAT:3 ENTANGLED_ADDRESSES:32fe CONF:1 cabb CONF:3 11cd3 CONF:0 0 CONF:0 0 CONF:0 0 CONF:0 BB SIZE:2
TAG:1d8 FORMAT:3 ENTANGLED_ADDRESSES:de93 CONF:2 1e8e CONF:2 52b4 CONF:3 0 CONF:0 0 CONF:0 0 CONF:0 BB SIZE:1
TAG:1bf FORMAT:3 ENTANGLED_ADDRESSES:b752 CONF:3 2a64 CONF:3 bd90 CONF:3 0 CONF:0 0 CONF:0 0 CONF:0 BB SIZE:1
TAG:159 FORMAT:3 ENTANGLED_ADDRESSES:f5db CONF:2 a763 CONF:3 157e0 CONF:3 0 CONF:0 0 CONF:0 0 CONF:0 BB SIZE:2
TAG:3e5 FORMAT:3 ENTANGLED_ADDRESSES:3c916 CONF:3 35ca9 CONF:3 0 CONF:0 0 CONF:0 0 CONF:0 0 CONF:0 BB SIZE:1
TAG:50f FORMAT:2 ENTANGLED_ADDRESSES:edbc8f9 CONF:2 edc1172 CONF:3 0 CONF:0 0 CONF:0 0 CONF:0 0 CONF:0 BB SIZE:1
TAG:545 FORMAT:6 ENTANGLED_ADDRESSES:35 CONF:2 39 CONF:3 3b CONF:3 3d CONF:3 0 CONF:0 0 CONF:0 BB SIZE:1
TAG:50a FORMAT:3 ENTANGLED_ADDRESSES:20a1 CONF:3 da0a CONF:3 20a9 CONF:3 0 CONF:0 0 CONF:0 0 CONF:0 BB SIZE:2
TAG:155 FORMAT:6 ENTANGLED_ADDRESSES:c7 CONF:1 a0 CONF:0 0 CONF:0 0 CONF:0 0 CONF:0 0 CONF:0 BB SIZE:2
TAG:135 FORMAT:3 ENTANGLED_ADDRESSES:45cf CONF:3 548a CONF:2 30c6 CONF:3 0 CONF:0 0 CONF:0 0 CONF:0 BB SIZE:0
TAG:132 FORMAT:1 ENTANGLED_ADDRESSES:0 CONF:0 0 CONF:0 0 CONF:0 0 CONF:0 0 CONF:0 0 CONF:0 BB SIZE:1
TAG:15b FORMAT:4 ENTANGLED_ADDRESSES:b23 CONF:1 b3b CONF:2 6e8 CONF:2 6e1 CONF:3 0 CONF:0 0 CONF:0 BB SIZE:0
TAG:13d FORMAT:3 ENTANGLED_ADDRESSES:2580a CONF:3 0 CONF:0 0 CONF:0 0 CONF:0 0 CONF:0 0 CONF:0 BB SIZE:0
TAG:0 FORMAT:1 ENTANGLED_ADDRESSES:0 CONF:0 0 CONF:0 0 CONF:0 0 CONF:0 0 CONF:0 0 CONF:0 BB SIZE:0
SET:31
TAG:16d FORMAT:3 ENTANGLED_ADDRESSES:ef9 CONF:3 16556 CONF:0 bf53 CONF:0 0 CONF:0 0 CONF:0 0 CONF:0 BB SIZE:1
TAG:136 FORMAT:3 ENTANGLED_ADDRESSES:d4a5 CONF:0 0 CONF:0 0 CONF:0 0 CONF:0 0 CONF:0 0 CONF:0 BB SIZE:1
TAG:1e7 FORMAT:1 ENTANGLED_ADDRESSES:0 CONF:0 0 CONF:0 0 CONF:0 0 CONF:0 0 CONF:0 0 CONF:0 BB SIZE:3
TAG:3e5 FORMAT:2 ENTANGLED_ADDRESSES:edc114c CONF:2 edbc9ec CONF:2 0 CONF:0 0 CONF:0 0 CONF:0 0 CONF:0 BB SIZE:1
TAG:1ff FORMAT:2 ENTANGLED_ADDRESSES:edfc827 CONF:3 e8e4a08 CONF:3 0 CONF:0 0 CONF:0 0 CONF:0 0 CONF:0 BB SIZE:1
TAG:13d FORMAT:3 ENTANGLED_ADDRESSES:45c6 CONF:3 4a9c CONF:0 43da CONF:2 0 CONF:0 0 CONF:0 0 CONF:0 BB SIZE:1
TAG:132 FORMAT:4 ENTANGLED_ADDRESSES:1a82 CONF:3 0 CONF:0 0 CONF:0 0 CONF:0 0 CONF:0 0 CONF:0 BB SIZE:1
TAG:6de FORMAT:3 ENTANGLED_ADDRESSES:9209 CONF:2 0 CONF:0 0 CONF:0 0 CONF:0 0 CONF:0 0 CONF:0 BB SIZE:0
TAG:155 FORMAT:3 ENTANGLED_ADDRESSES:46c7 CONF:3 46c2 CONF:3 38ad CONF:2 0 CONF:0 0 CONF:0 0 CONF:0 BB SIZE:0
TAG:15b FORMAT:4 ENTANGLED_ADDRESSES:6e8 CONF:3 a8 CONF:0 b44 CONF:2 b46 CONF:2 bb7 CONF:1 ac CONF:0 BB SIZE:0
TAG:1a FORMAT:1 ENTANGLED_ADDRESSES:0 CONF:0 0 CONF:0 0 CONF:0 0 CONF:0 0 CONF:0 0 CONF:0 BB SIZE:d
TAG:368 FORMAT:4 ENTANGLED_ADDRESSES:1d8f CONF:2 0 CONF:0 0 CONF:0 0 CONF:0 0 CONF:0 0 CONF:0 BB SIZE:0
TAG:351 FORMAT:2 ENTANGLED_ADDRESSES:edfc745 CONF:3 0 CONF:0 0 CONF:0 0 CONF:0 0 CONF:0 0 CONF:0 BB SIZE:0
TAG:0 FORMAT:1 ENTANGLED_ADDRESSES:0 CONF:0 0 CONF:0 0 CONF:0 0 CONF:0 0 CONF:0 0 CONF:0 BB SIZE:0
TAG:0 FORMAT:1 ENTANGLED_ADDRESSES:0 CONF:0 0 CONF:0 0 CONF:0 0 CONF:0 0 CONF:0 0 CONF:0 BB SIZE:0
TAG:0 FORMAT:1 ENTANGLED_ADDRESSES:0 CONF:0 0 CONF:0 0 CONF:0 0 CONF:0 0 CONF:0 0 CONF:0 BB SIZE:0
SET:32
TAG:1bf FORMAT:2 ENTANGLED_ADDRESSES:edff411 CONF:3 ecc2a5c CONF:3 0 CONF:0 0 CONF:0 0 CONF:0 0 CONF:0 BB SIZE:3
TAG:15b FORMAT:3 ENTANGLED_ADDRESSES:46e8 CONF:1 4af0 CONF:2 20b4 CONF:3 0 CONF:0 0 CONF:0 0 CONF:0 BB SIZE:2
TAG:1e2 FORMAT:3 ENTANGLED_ADDRESSES:76fc CONF:2 76ff CONF:1 0 CONF:0 0 CONF:0 0 CONF:0 0 CONF:0 BB SIZE:1
TAG:6b FORMAT:3 ENTANGLED_ADDRESSES:d499 CONF:3 af CONF:0 da CONF:0 154e1 CONF:3 154f1 CONF:3 0 CONF:0 BB SIZE:4
TAG:136 FORMAT:3 ENTANGLED_ADDRESSES:356d CONF:2 1f99 CONF:3 1700 CONF:2 0 CONF:0 0 CONF:0 0 CONF:0 BB SIZE:3
TAG:169 FORMAT:3 ENTANGLED_ADDRESSES:f7d0 CONF:3 fd01 CONF:3 fcfc CONF:3 0 CONF:0 0 CONF:0 0 CONF:0 BB SIZE:0
TAG:33 FORMAT:3 ENTANGLED_ADDRESSES:11cd0 CONF:3 61f8 CONF:3 eac CONF:0 0 CONF:0 0 CONF:0 0 CONF:0 BB SIZE:5
TAG:3e5 FORMAT:2 ENTANGLED_ADDRESSES:edc271a CONF:3 edb5ca4 CONF:3 0 CONF:0 0 CONF:0 0 CONF:0 0 CONF:0 BB SIZE:2
TAG:50f FORMAT:1 ENTANGLED_ADDRESSES:0 CONF:0 0 CONF:0 0 CONF:0 0 CONF:0 0 CONF:0 0 CONF:0 BB SIZE:1
TAG:545 FORMAT:5 ENTANGLED_ADDRESSES:99 CONF:2 0 CONF:0 0 CONF:0 0 CONF:0 0 CONF:0 0 CONF:0 BB SIZE:1
TAG:573 FORMAT:3 ENTANGLED_ADDRESSES:9209 CONF:3 3fd09 CONF:2 3d5c0 CONF:3 0 CONF:0 0 CONF:0 0 CONF:0 BB SIZE:4
TAG:13d FORMAT:1 ENTANGLED_ADDRESSES:0 CONF:0 0 CONF:0 0 CONF:0 0 CONF:0 0 CONF:0 0 CONF:0 BB SIZE:1
TAG:117 FORMAT:3 ENTANGLED_ADDRESSES:6b10 CONF:2 1f3c CONF:2 0 CONF:0 0 CONF:0 0 CONF:0 0 CONF:0 BB SIZE:0
TAG:0 FORMAT:1 ENTANGLED_ADDRESSES:0 CONF:0 0 CONF:0 0 CONF:0 0 CONF:0 0 CONF:0 0 CONF:0 BB SIZE:0
TAG:0 FORMAT:1 ENTANGLED_ADDRESSES:0 CONF:0 0 CONF:0 0 CONF:0 0 CONF:0 0 CONF:0 0 CONF:0 BB SIZE:0
TAG:0 FORMAT:1 ENTANGLED_ADDRESSES:0 CONF:0 0 CONF:0 0 CONF:0 0 CONF:0 0 CONF:0 0 CONF:0 BB SIZE:0
SET:33
TAG:6c9 FORMAT:1 ENTANGLED_ADDRESSES:3fffc00002020bb CONF:3 edd0b44 CONF:0 3c80b CONF:0 0 CONF:0 0 CONF:0 0 CONF:0 BB SIZE:3
TAG:111 FORMAT:3 ENTANGLED_ADDRESSES:92a1 CONF:3 41ce CONF:3 16675 CONF:3 0 CONF:0 0 CONF:0 0 CONF:0 BB SIZE:1
TAG:1c2 FORMAT:1 ENTANGLED_ADDRESSES:0 CONF:0 0 CONF:0 0 CONF:0 0 CONF:0 0 CONF:0 0 CONF:0 BB SIZE:3
TAG:14b FORMAT:3 ENTANGLED_ADDRESSES:877c CONF:1 3971 CONF:1 3972 CONF:3 0 CONF:0 0 CONF:0 0 CONF:0 BB SIZE:4
TAG:7 FORMAT:3 ENTANGLED_ADDRESSES:b0a8 CONF:3 b0a5 CONF:3 0 CONF:0 0 CONF:0 0 CONF:0 0 CONF:0 BB SIZE:3
TAG:19f FORMAT:3 ENTANGLED_ADDRESSES:2612 CONF:1 cbfd CONF:3 2617 CONF:3 0 CONF:0 0 CONF:0 0 CONF:0 BB SIZE:6
TAG:1a9 FORMAT:3 ENTANGLED_ADDRESSES:18f37 CONF:3 18f21 CONF:3 18f34 CONF:3 0 CONF:0 0 CONF:0 0 CONF:0 BB SIZE:1
TAG:7d FORMAT:3 ENTANGLED_ADDRESSES:4c97 CONF:2 0 CONF:0 0 CONF:0 0 CONF:0 0 CONF:0 0 CONF:0 BB SIZE:15
TAG:6f FORMAT:2 ENTANGLED_ADDRESSES:e8e49df CONF:3 ecc13a7 CONF:2 eccf6ef CONF:0 0 CONF:0 0 CONF:0 0 CONF:0 BB SIZE:b
TAG:3da FORMAT:3 ENTANGLED_ADDRESSES:23e80 CONF:2 776e CONF:0 77b5 CONF:0 0 CONF:0 0 CONF:0 0 CONF:0 BB SIZE:0
TAG:167 FORMAT:4 ENTANGLED_ADDRESSES:4c7 CONF:2 6c5 CONF:3 165 CONF:3 657 CONF:3 0 CONF:0 0 CONF:0 BB SIZE:1
TAG:165 FORMAT:5 ENTANGLED_ADDRESSES:7 CONF:2 2bb CONF:3 0 CONF:0 0 CONF:0 0 CONF:0 0 CONF:0 BB SIZE:3
TAG:3d3 FORMAT:3 ENTANGLED_ADDRESSES:23f72 CONF:3 277ea CONF:3 258f0 CONF:3 0 CONF:0 0 CONF:0 0 CONF:0 BB SIZE:0
TAG:1fa FORMAT:1 ENTANGLED_ADDRESSES:0 CONF:0 0 CONF:0 0 CONF:0 0 CONF:0 0 CONF:0 0 CONF:0 BB SIZE:a
TAG:0 FORMAT:1 ENTANGLED_ADDRESSES:0 CONF:0 0 CONF:0 0 CONF:0 0 CONF:0 0 CONF:0 0 CONF:0 BB SIZE:0
TAG:0 FORMAT:1 ENTANGLED_ADDRESSES:0 CONF:0 0 CONF:0 0 CONF:0 0 CONF:0 0 CONF:0 0 CONF:0 BB SIZE:0
SET:34
TAG:163 FORMAT:3 ENTANGLED_ADDRESSES:7834 CONF:3 77a4 CONF:3 228c6 CONF:3 19d5 CONF:0 0 CONF:0 0 CONF:0 BB SIZE:1
TAG:19d FORMAT:3 ENTANGLED_ADDRESSES:11534 CONF:3 11550 CONF:3 0 CONF:0 0 CONF:0 0 CONF:0 0 CONF:0 BB SIZE:4
TAG:10a FORMAT:6 ENTANGLED_ADDRESSES:c2 CONF:2 0 CONF:0 0 CONF:0 0 CONF:0 0 CONF:0 0 CONF:0 BB SIZE:4
TAG:1fa FORMAT:3 ENTANGLED_ADDRESSES:ef9 CONF:3 efc CONF:3 0 CONF:0 0 CONF:0 0 CONF:0 0 CONF:0 BB SIZE:b
TAG:1f4 FORMAT:2 ENTANGLED_ADDRESSES:edf891b CONF:3 ecd6252 CONF:2 0 CONF:0 0 CONF:0 0 CONF:0 0 CONF:0 BB SIZE:2
TAG:6b FORMAT:3 ENTANGLED_ADDRESSES:4578 CONF:3 4be1 CONF:2 154e1 CONF:2 0 CONF:0 0 CONF:0 0 CONF:0 BB SIZE:a
TAG:134 FORMAT:3 ENTANGLED_ADDRESSES:f9f6 CONF:1 3b26 CONF:2 3b0f CONF:3 0 CONF:0 0 CONF:0 0 CONF:0 BB SIZE:0
TAG:3c6 FORMAT:5 ENTANGLED_ADDRESSES:d9 CONF:2 dc CONF:1 1d3 CONF:2 d7 CONF:0 d4 CONF:0 0 CONF:0 BB SIZE:1
TAG:135 FORMAT:4 ENTANGLED_ADDRESSES:1c37 CONF:3 1c56 CONF:3 1c4b CONF:3 0 CONF:0 0 CONF:0 0 CONF:0 BB SIZE:0
TAG:190 FORMAT:2 ENTANGLED_ADDRESSES:edff412 CONF:2 0 CONF:0 0 CONF:0 0 CONF:0 0 CONF:0 0 CONF:0 BB SIZE:c
TAG:164 FORMAT:5 ENTANGLED_ADDRESSES:d1 CONF:3 168 CONF:3 0 CONF:0 0 CONF:0 0 CONF:0 0 CONF:0 BB SIZE:1
TAG:0 FORMAT:1 ENTANGLED_ADDRESSES:0 CONF:0 0 CONF:0 0 CONF:0 0 CONF:0 0 CONF:0 0 CONF:0 BB SIZE:0
TAG:0 FORMAT:1 ENTANGLED_ADDRESSES:0 CONF:0 0 CONF:0 0 CONF:0 0 CONF:0 0 CONF:0 0 CONF:0 BB SIZE:0
TAG:0 FORMAT:1 ENTANGLED_ADDRESSES:0 CONF:0 0 CONF:0 0 CONF:0 0 CONF:0 0 CONF:0 0 CONF:0 BB SIZE:0
TAG:0 FORMAT:1 ENTANGLED_ADDRESSES:0 CONF:0 0 CONF:0 0 CONF:0 0 CONF:0 0 CONF:0 0 CONF:0 BB SIZE:0
TAG:0 FORMAT:1 ENTANGLED_ADDRESSES:0 CONF:0 0 CONF:0 0 CONF:0 0 CONF:0 0 CONF:0 0 CONF:0 BB SIZE:0
SET:35
TAG:7 FORMAT:3 ENTANGLED_ADDRESSES:e80a CONF:2 e80e CONF:2 0 CONF:0 0 CONF:0 0 CONF:0 0 CONF:0 BB SIZE:5
TAG:136 FORMAT:3 ENTANGLED_ADDRESSES:c3a9 CONF:3 4f8a CONF:3 1fa2 CONF:3 0 CONF:0 0 CONF:0 0 CONF:0 BB SIZE:3
TAG:b FORMAT:4 ENTANGLED_ADDRESSES:12a CONF:3 13f CONF:3 5791 CONF:0 0 CONF:0 0 CONF:0 0 CONF:0 BB SIZE:5
TAG:1d0 FORMAT:3 ENTANGLED_ADDRESSES:f1b CONF:3 f4cf CONF:1 9094 CONF:3 0 CONF:0 0 CONF:0 0 CONF:0 BB SIZE:2
TAG:1a9 FORMAT:2 ENTANGLED_ADDRESSES:edd0b33 CONF:3 edd0c5c CONF:3 0 CONF:0 0 CONF:0 0 CONF:0 0 CONF:0 BB SIZE:2
TAG:3da FORMAT:4 ENTANGLED_ADDRESSES:1533 CONF:2 1b53 CONF:2 1827 CONF:3 0 CONF:0 0 CONF:0 0 CONF:0 BB SIZE:2
TAG:0 FORMAT:1 ENTANGLED_ADDRESSES:0 CONF:0 0 CONF:0 0 CONF:0 0 CONF:0 0 CONF:0 0 CONF:0 BB SIZE:0
TAG:0 FORMAT:1 ENTANGLED_ADDRESSES:0 CONF:0 0 CONF:0 0 CONF:0 0 CONF:0 0 CONF:0 0 CONF:0 BB SIZE:0
TAG:0 FORMAT:1 ENTANGLED_ADDRESSES:0 CONF:0 0 CONF:0 0 CONF:0 0 CONF:0 0 CONF:0 0 CONF:0 BB SIZE:0
TAG:0 FORMAT:1 ENTANGLED_ADDRESSES:0 CONF:0 0 CONF:0 0 CONF:0 0 CONF:0 0 CONF:0 0 CONF:0 BB SIZE:0
TAG:0 FORMAT:1 ENTANGLED_ADDRESSES:0 CONF:0 0 CONF:0 0 CONF:0 0 CONF:0 0 CONF:0 0 CONF:0 BB SIZE:0
TAG:0 FORMAT:1 ENTANGLED_ADDRESSES:0 CONF:0 0 CONF:0 0 CONF:0 0 CONF:0 0 CONF:0 0 CONF:0 BB SIZE:0
TAG:0 FORMAT:1 ENTANGLED_ADDRESSES:0 CONF:0 0 CONF:0 0 CONF:0 0 CONF:0 0 CONF:0 0 CONF:0 BB SIZE:0
TAG:0 FORMAT:1 ENTANGLED_ADDRESSES:0 CONF:0 0 CONF:0 0 CONF:0 0 CONF:0 0 CONF:0 0 CONF:0 BB SIZE:0
TAG:0 FORMAT:1 ENTANGLED_ADDRESSES:0 CONF:0 0 CONF:0 0 CONF:0 0 CONF:0 0 CONF:0 0 CONF:0 BB SIZE:0
TAG:0 FORMAT:1 ENTANGLED_ADDRESSES:0 CONF:0 0 CONF:0 0 CONF:0 0 CONF:0 0 CONF:0 0 CONF:0 BB SIZE:0
SET:36
TAG:1c2 FORMAT:3 ENTANGLED_ADDRESSES:17374 CONF:3 8806 CONF:3 160d3 CONF:3 0 CONF:0 0 CONF:0 0 CONF:0 BB SIZE:8
TAG:3d3 FORMAT:3 ENTANGLED_ADDRESSES:277ed CONF:2 2546a CONF:2 23f71 CONF:2 0 CONF:0 0 CONF:0 0 CONF:0 BB SIZE:1
TAG:6d FORMAT:3 ENTANGLED_ADDRESSES:15364 CONF:3 10206 CONF:3 15004 CONF:3 0 CONF:0 0 CONF:0 0 CONF:0 BB SIZE:4
TAG:50a FORMAT:3 ENTANGLED_ADDRESSES:ac82 CONF:2 91cc CONF:2 0 CONF:0 0 CONF:0 0 CONF:0 0 CONF:0 BB SIZE:1
TAG:190 FORMAT:2 ENTANGLED_ADDRESSES:ecc4f7a CONF:3 edd0b34 CONF:3 0 CONF:0 0 CONF:0 0 CONF:0 0 CONF:0 BB SIZE:2
TAG:0 FORMAT:1 ENTANGLED_ADDRESSES:0 CONF:0 0 CONF:0 0 CONF:0 0 CONF:0 0 CONF:0 0 CONF:0 BB SIZE:0
TAG:0 FORMAT:1 ENTANGLED_ADDRESSES:0 CONF:0 0 CONF:0 0 CONF:0 0 CONF:0 0 CONF:0 0 CONF:0 BB SIZE:0
TAG:0 FORMAT:1 ENTANGLED_ADDRESSES:0 CONF:0 0 CONF:0 0 CONF:0 0 CONF:0 0 CONF:0 0 CONF:0 BB SIZE:0
TAG:0 FORMAT:1 ENTANGLED_ADDRESSES:0 CONF:0 0 CONF:0 0 CONF:0 0 CONF:0 0 CONF:0 0 CONF:0 BB SIZE:0
TAG:0 FORMAT:1 ENTANGLED_ADDRESSES:0 CONF:0 0 CONF:0 0 CONF:0 0 CONF:0 0 CONF:0 0 CONF:0 BB SIZE:0
TAG:0 FORMAT:1 ENTANGLED_ADDRESSES:0 CONF:0 0 CONF:0 0 CONF:0 0 CONF:0 0 CONF:0 0 CONF:0 BB SIZE:0
TAG:0 FORMAT:1 ENTANGLED_ADDRESSES:0 CONF:0 0 CONF:0 0 CONF:0 0 CONF:0 0 CONF:0 0 CONF:0 BB SIZE:0
TAG:0 FORMAT:1 ENTANGLED_ADDRESSES:0 CONF:0 0 CONF:0 0 CONF:0 0 CONF:0 0 CONF:0 0 CONF:0 BB SIZE:0
TAG:0 FORMAT:1 ENTANGLED_ADDRESSES:0 CONF:0 0 CONF:0 0 CONF:0 0 CONF:0 0 CONF:0 0 CONF:0 BB SIZE:0
TAG:0 FORMAT:1 ENTANGLED_ADDRESSES:0 CONF:0 0 CONF:0 0 CONF:0 0 CONF:0 0 CONF:0 0 CONF:0 BB SIZE:0
TAG:0 FORMAT:1 ENTANGLED_ADDRESSES:0 CONF:0 0 CONF:0 0 CONF:0 0 CONF:0 0 CONF:0 0 CONF:0 BB SIZE:0
SET:37
TAG:19d FORMAT:2 ENTANGLED_ADDRESSES:edff40e CONF:3 eccc32e CONF:3 0 CONF:0 0 CONF:0 0 CONF:0 0 CONF:0 BB SIZE:b
TAG:6c9 FORMAT:3 ENTANGLED_ADDRESSES:3c6bc CONF:2 b587 CONF:0 b581 CONF:2 0 CONF:0 0 CONF:0 0 CONF:0 BB SIZE:0
TAG:1c2 FORMAT:3 ENTANGLED_ADDRESSES:592b CONF:3 ec38 CONF:3 96ee CONF:2 0 CONF:0 0 CONF:0 0 CONF:0 BB SIZE:7
TAG:1aa FORMAT:3 ENTANGLED_ADDRESSES:b581 CONF:2 3329 CONF:2 15bd6 CONF:3 0 CONF:0 0 CONF:0 0 CONF:0 BB SIZE:1
TAG:1d8 FORMAT:3 ENTANGLED_ADDRESSES:9a7e CONF:2 feb7 CONF:2 13b1b CONF:3 0 CONF:0 0 CONF:0 0 CONF:0 BB SIZE:5
TAG:1bb FORMAT:3 ENTANGLED_ADDRESSES:f12 CONF:3 0 CONF:0 0 CONF:0 0 CONF:0 0 CONF:0 0 CONF:0 BB SIZE:2
TAG:4a6 FORMAT:4 ENTANGLED_ADDRESSES:216 CONF:1 10216 CONF:0 0 CONF:0 0 CONF:0 0 CONF:0 0 CONF:0 BB SIZE:1
TAG:1c4 FORMAT:4 ENTANGLED_ADDRESSES:17ce CONF:2 17d0 CONF:3 17d6 CONF:3 fd01 CONF:0 0 CONF:0 0 CONF:0 BB SIZE:4
TAG:7b FORMAT:3 ENTANGLED_ADDRESSES:14135 CONF:2 1415f CONF:3 331f CONF:3 0 CONF:0 0 CONF:0 0 CONF:0 BB SIZE:5
TAG:136 FORMAT:3 ENTANGLED_ADDRESSES:4578 CONF:1 356d CONF:2 da29 CONF:3 0 CONF:0 0 CONF:0 0 CONF:0 BB SIZE:7
TAG:b FORMAT:1 ENTANGLED_ADDRESSES:0 CONF:0 0 CONF:0 0 CONF:0 0 CONF:0 0 CONF:0 0 CONF:0 BB SIZE:4
TAG:5a4 FORMAT:3 ENTANGLED_ADDRESSES:3733 CONF:2 3775 CONF:0 3c789 CONF:3 0 CONF:0 0 CONF:0 0 CONF:0 BB SIZE:0
TAG:19e FORMAT:3 ENTANGLED_ADDRESSES:10356 CONF:3 2ae8 CONF:3 1fa2 CONF:3 0 CONF:0 0 CONF:0 0 CONF:0 BB SIZE:1
TAG:392 FORMAT:2 ENTANGLED_ADDRESSES:edcb8e0 CONF:3 3a6c6 CONF:0 edb84af CONF:3 0 CONF:0 0 CONF:0 0 CONF:0 BB SIZE:2
TAG:155 FORMAT:6 ENTANGLED_ADDRESSES:85 CONF:2 88 CONF:3 8d CONF:3 0 CONF:0 0 CONF:0 0 CONF:0 BB SIZE:2
TAG:3d3 FORMAT:4 ENTANGLED_ADDRESSES:810 CONF:2 4c CONF:3 2c CONF:3 0 CONF:0 0 CONF:0 0 CONF:0 BB SIZE:0
SET:38
TAG:1ff FORMAT:2 ENTANGLED_ADDRESSES:edff40e CONF:3 eccbd90 CONF:3 0 CONF:0 0 CONF:0 0 CONF:0 0 CONF:0 BB SIZE:8
TAG:5a4 FORMAT:3 ENTANGLED_ADDRESSES:3c789 CONF:2 3733 CONF:2 10d63 CONF:3 0 CONF:0 0 CONF:0 0 CONF:0 BB SIZE:2
TAG:3a0 FORMAT:3 ENTANGLED_ADDRESSES:25444 CONF:3 25969 CONF:3 0 CONF:0 0 CONF:0 0 CONF:0 0 CONF:0 BB SIZE:2
TAG:3d3 FORMAT:4 ENTANGLED_ADDRESSES:16a1 CONF:3 14c0 CONF:2 51 CONF:3 50 CONF:3 0 CONF:0 0 CONF:0 BB SIZE:1
TAG:4a6 FORMAT:3 ENTANGLED_ADDRESSES:bbfb CONF:3 377e CONF:0 bc05 CONF:2 0 CONF:0 0 CONF:0 0 CONF:0 BB SIZE:2
TAG:197 FORMAT:2 ENTANGLED_ADDRESSES:edb5ca9 CONF:3 edbfab0 CONF:3 0 CONF:0 0 CONF:0 0 CONF:0 0 CONF:0 BB SIZE:2
TAG:19f FORMAT:1 ENTANGLED_ADDRESSES:0 CONF:0 0 CONF:0 0 CONF:0 0 CONF:0 0 CONF:0 0 CONF:0 BB SIZE:1
TAG:5f4 FORMAT:2 ENTANGLED_ADDRESSES:edb5ca9 CONF:3 edfc789 CONF:3 0 CONF:0 0 CONF:0 0 CONF:0 0 CONF:0 BB SIZE:1
TAG:134 FORMAT:3 ENTANGLED_ADDRESSES:f9f6 CONF:3 3b26 CONF:3 3b42 CONF:0 3e CONF:0 0 CONF:0 0 CONF:0 BB SIZE:3
TAG:143 FORMAT:3 ENTANGLED_ADDRESSES:3a43 CONF:3 54a0 CONF:0 393f CONF:0 0 CONF:0 0 CONF:0 0 CONF:0 BB SIZE:1
TAG:190 FORMAT:1 ENTANGLED_ADDRESSES:0 CONF:0 0 CONF:0 0 CONF:0 0 CONF:0 0 CONF:0 0 CONF:0 BB SIZE:3
TAG:544 FORMAT:2 ENTANGLED_ADDRESSES:edbb18f CONF:3 7628 CONF:0 edcf733 CONF:3 0 CONF:0 0 CONF:0 0 CONF:0 BB SIZE:2
TAG:1ae FORMAT:3 ENTANGLED_ADDRESSES:79b9 CONF:1 8844 CONF:3 8876 CONF:3 0 CONF:0 0 CONF:0 0 CONF:0 BB SIZE:0
TAG:83 FORMAT:6 ENTANGLED_ADDRESSES:9a CONF:2 5b CONF:2 0 CONF:0 0 CONF:0 0 CONF:0 0 CONF:0 BB SIZE:3
TAG:b FORMAT:1 ENTANGLED_ADDRESSES:0 CONF:0 0 CONF:0 0 CONF:0 0 CONF:0 0 CONF:0 0 CONF:0 BB SIZE:1
TAG:1bb FORMAT:1 ENTANGLED_ADDRESSES:0 CONF:0 0 CONF:0 0 CONF:0 0 CONF:0 0 CONF:0 0 CONF:0 BB SIZE:3
SET:39
TAG:5a4 FORMAT:3 ENTANGLED_ADDRESSES:3775 CONF:0 44 CONF:0 5045 CONF:2 0 CONF:0 0 CONF:0 0 CONF:0 BB SIZE:3
TAG:1c2 FORMAT:3 ENTANGLED_ADDRESSES:16a32 CONF:3 16a36 CONF:3 b4ea CONF:3 0 CONF:0 0 CONF:0 0 CONF:0 BB SIZE:9
TAG:15e FORMAT:3 ENTANGLED_ADDRESSES:11cf0 CONF:2 0 CONF:0 0 CONF:0 0 CONF:0 0 CONF:0 0 CONF:0 BB SIZE:2
TAG:3c2 FORMAT:3 ENTANGLED_ADDRESSES:277ed CONF:2 277ee CONF:3 25469 CONF:1 0 CONF:0 0 CONF:0 0 CONF:0 BB SIZE:2
TAG:6c9 FORMAT:3 ENTANGLED_ADDRESSES:b587 CONF:3 b580 CONF:2 b61d CONF:1 0 CONF:0 0 CONF:0 0 CONF:0 BB SIZE:0
TAG:1fa FORMAT:1 ENTANGLED_ADDRESSES:0 CONF:0 0 CONF:0 0 CONF:0 0 CONF:0 0 CONF:0 0 CONF:0 BB SIZE:9
TAG:197 FORMAT:2 ENTANGLED_ADDRESSES:edfc827 CONF:3 e8e4986 CONF:3 0 CONF:0 0 CONF:0 0 CONF:0 0 CONF:0 BB SIZE:1
TAG:3f6 FORMAT:4 ENTANGLED_ADDRESSES:9fb CONF:2 9f7 CONF:2 0 CONF:0 0 CONF:0 0 CONF:0 0 CONF:0 BB SIZE:3
TAG:19e FORMAT:3 ENTANGLED_ADDRESSES:9bb7 CONF:3 bde3 CONF:3 2c27 CONF:0 0 CONF:0 0 CONF:0 0 CONF:0 BB SIZE:3
TAG:165 FORMAT:4 ENTANGLED_ADDRESSES:7ba CONF:3 6c5 CONF:2 7b8 CONF:2 151 CONF:2 0 CONF:0 0 CONF:0 BB SIZE:1
TAG:17a FORMAT:1 ENTANGLED_ADDRESSES:0 CONF:0 0 CONF:0 0 CONF:0 0 CONF:0 0 CONF:0 0 CONF:0 BB SIZE:4
TAG:6d FORMAT:3 ENTANGLED_ADDRESSES:14003 CONF:2 12811 CONF:3 d94f CONF:0 0 CONF:0 0 CONF:0 0 CONF:0 BB SIZE:0
TAG:134 FORMAT:6 ENTANGLED_ADDRESSES:3e CONF:0 0 CONF:0 0 CONF:0 0 CONF:0 0 CONF:0 0 CONF:0 BB SIZE:0
TAG:137 FORMAT:3 ENTANGLED_ADDRESSES:c3b9 CONF:2 0 CONF:0 0 CONF:0 0 CONF:0 0 CONF:0 0 CONF:0 BB SIZE:0
TAG:392 FORMAT:2 ENTANGLED_ADDRESSES:edc8135 CONF:3 edcf730 CONF:3 0 CONF:0 0 CONF:0 0 CONF:0 0 CONF:0 BB SIZE:1
TAG:0 FORMAT:1 ENTANGLED_ADDRESSES:0 CONF:0 0 CONF:0 0 CONF:0 0 CONF:0 0 CONF:0 0 CONF:0 BB SIZE:0
SET:40
TAG:1c2 FORMAT:3 ENTANGLED_ADDRESSES:8f55 CONF:3 db1c CONF:3 b35c CONF:3 0 CONF:0 0 CONF:0 0 CONF:0 BB SIZE:a
TAG:113 FORMAT:3 ENTANGLED_ADDRESSES:5347 CONF:2 5a26 CONF:3 9668 CONF:2 0 CONF:0 0 CONF:0 0 CONF:0 BB SIZE:d
TAG:1c3 FORMAT:3 ENTANGLED_ADDRESSES:12ac5 CONF:3 0 CONF:0 0 CONF:0 0 CONF:0 0 CONF:0 0 CONF:0 BB SIZE:1
TAG:74 FORMAT:3 ENTANGLED_ADDRESSES:2b00 CONF:3 b13e CONF:3 14d11 CONF:2 0 CONF:0 0 CONF:0 0 CONF:0 BB SIZE:2
TAG:195 FORMAT:3 ENTANGLED_ADDRESSES:be43 CONF:2 dc05 CONF:3 dc33 CONF:3 0 CONF:0 0 CONF:0 0 CONF:0 BB SIZE:2
TAG:4a6 FORMAT:3 ENTANGLED_ADDRESSES:bc05 CONF:3 bbf7 CONF:3 10d10 CONF:2 0 CONF:0 0 CONF:0 0 CONF:0 BB SIZE:3
TAG:5a4 FORMAT:3 ENTANGLED_ADDRESSES:3733 CONF:3 5042 CONF:0 5239 CONF:0 0 CONF:0 0 CONF:0 0 CONF:0 BB SIZE:0
TAG:3d1 FORMAT:3 ENTANGLED_ADDRESSES:2577f CONF:2 482c CONF:2 2578d CONF:1 0 CONF:0 0 CONF:0 0 CONF:0 BB SIZE:1
TAG:155 FORMAT:3 ENTANGLED_ADDRESSES:46c6 CONF:3 46c3 CONF:3 3905 CONF:3 0 CONF:0 0 CONF:0 0 CONF:0 BB SIZE:3
TAG:504 FORMAT:3 ENTANGLED_ADDRESSES:1ad6 CONF:3 7628 CONF:3 f72c CONF:3 0 CONF:0 0 CONF:0 0 CONF:0 BB SIZE:2
TAG:1fa FORMAT:6 ENTANGLED_ADDRESSES:78 CONF:3 0 CONF:0 0 CONF:0 0 CONF:0 0 CONF:0 0 CONF:0 BB SIZE:1
TAG:6d FORMAT:3 ENTANGLED_ADDRESSES:6daa CONF:2 c005 CONF:2 1690c CONF:2 0 CONF:0 0 CONF:0 0 CONF:0 BB SIZE:0
TAG:0 FORMAT:1 ENTANGLED_ADDRESSES:0 CONF:0 0 CONF:0 0 CONF:0 0 CONF:0 0 CONF:0 0 CONF:0 BB SIZE:0
TAG:0 FORMAT:1 ENTANGLED_ADDRESSES:0 CONF:0 0 CONF:0 0 CONF:0 0 CONF:0 0 CONF:0 0 CONF:0 BB SIZE:0
TAG:0 FORMAT:1 ENTANGLED_ADDRESSES:0 CONF:0 0 CONF:0 0 CONF:0 0 CONF:0 0 CONF:0 0 CONF:0 BB SIZE:0
TAG:0 FORMAT:1 ENTANGLED_ADDRESSES:0 CONF:0 0 CONF:0 0 CONF:0 0 CONF:0 0 CONF:0 0 CONF:0 BB SIZE:0
SET:41
TAG:1d4 FORMAT:3 ENTANGLED_ADDRESSES:9602 CONF:1 13b45 CONF:0 15c0f CONF:0 0 CONF:0 0 CONF:0 0 CONF:0 BB SIZE:6
TAG:1bb FORMAT:1 ENTANGLED_ADDRESSES:0 CONF:0 0 CONF:0 0 CONF:0 0 CONF:0 0 CONF:0 0 CONF:0 BB SIZE:3
TAG:b FORMAT:1 ENTANGLED_ADDRESSES:3fffc00002020b0 CONF:0 12883 CONF:0 9098 CONF:0 0 CONF:0 0 CONF:0 0 CONF:0 BB SIZE:7
TAG:4a7 FORMAT:3 ENTANGLED_ADDRESSES:3c661 CONF:3 b46 CONF:0 10b47 CONF:3 10b44 CONF:2 0 CONF:0 0 CONF:0 BB SIZE:1
TAG:1e6 FORMAT:3 ENTANGLED_ADDRESSES:18f37 CONF:2 18f24 CONF:2 0 CONF:0 0 CONF:0 0 CONF:0 0 CONF:0 BB SIZE:1
TAG:538 FORMAT:2 ENTANGLED_ADDRESSES:edbc9fb CONF:0 edbc9f7 CONF:3 0 CONF:0 0 CONF:0 0 CONF:0 0 CONF:0 BB SIZE:1
TAG:5cc FORMAT:3 ENTANGLED_ADDRESSES:24e2 CONF:0 807e CONF:3 8080 CONF:2 0 CONF:0 0 CONF:0 0 CONF:0 BB SIZE:2
TAG:545 FORMAT:6 ENTANGLED_ADDRESSES:80 CONF:2 4 CONF:3 0 CONF:0 0 CONF:0 0 CONF:0 0 CONF:0 BB SIZE:2
TAG:134 FORMAT:3 ENTANGLED_ADDRESSES:f9e5 CONF:3 f7c6 CONF:3 0 CONF:0 0 CONF:0 0 CONF:0 0 CONF:0 BB SIZE:0
TAG:0 FORMAT:1 ENTANGLED_ADDRESSES:0 CONF:0 0 CONF:0 0 CONF:0 0 CONF:0 0 CONF:0 0 CONF:0 BB SIZE:0
TAG:0 FORMAT:1 ENTANGLED_ADDRESSES:0 CONF:0 0 CONF:0 0 CONF:0 0 CONF:0 0 CONF:0 0 CONF:0 BB SIZE:0
TAG:0 FORMAT:1 ENTANGLED_ADDRESSES:0 CONF:0 0 CONF:0 0 CONF:0 0 CONF:0 0 CONF:0 0 CONF:0 BB SIZE:0
TAG:0 FORMAT:1 ENTANGLED_ADDRESSES:0 CONF:0 0 CONF:0 0 CONF:0 0 CONF:0 0 CONF:0 0 CONF:0 BB SIZE:0
TAG:0 FORMAT:1 ENTANGLED_ADDRESSES:0 CONF:0 0 CONF:0 0 CONF:0 0 CONF:0 0 CONF:0 0 CONF:0 BB SIZE:0
TAG:0 FORMAT:1 ENTANGLED_ADDRESSES:0 CONF:0 0 CONF:0 0 CONF:0 0 CONF:0 0 CONF:0 0 CONF:0 BB SIZE:0
TAG:0 FORMAT:1 ENTANGLED_ADDRESSES:0 CONF:0 0 CONF:0 0 CONF:0 0 CONF:0 0 CONF:0 0 CONF:0 BB SIZE:0
SET:42
TAG:7d FORMAT:3 ENTANGLED_ADDRESSES:a6c2 CONF:2 f09c CONF:2 f0a3 CONF:2 0 CONF:0 0 CONF:0 0 CONF:0 BB SIZE:4
TAG:1c2 FORMAT:3 ENTANGLED_ADDRESSES:a008 CONF:2 4950 CONF:3 4955 CONF:0 0 CONF:0 0 CONF:0 0 CONF:0 BB SIZE:3
TAG:1bb FORMAT:3 ENTANGLED_ADDRESSES:27a7 CONF:1 1f9b CONF:2 e55b CONF:3 0 CONF:0 0 CONF:0 0 CONF:0 BB SIZE:6
TAG:1ae FORMAT:3 ENTANGLED_ADDRESSES:79b9 CONF:3 8844 CONF:3 0 CONF:0 0 CONF:0 0 CONF:0 0 CONF:0 BB SIZE:1
TAG:3d3 FORMAT:3 ENTANGLED_ADDRESSES:25467 CONF:3 2546a CONF:3 23f71 CONF:3 0 CONF:0 0 CONF:0 0 CONF:0 BB SIZE:1
TAG:197 FORMAT:3 ENTANGLED_ADDRESSES:52b4 CONF:2 11f95 CONF:2 0 CONF:0 0 CONF:0 0 CONF:0 0 CONF:0 BB SIZE:6
TAG:7e FORMAT:3 ENTANGLED_ADDRESSES:e01f CONF:3 e022 CONF:3 e01b CONF:3 0 CONF:0 0 CONF:0 0 CONF:0 BB SIZE:2
TAG:57 FORMAT:3 ENTANGLED_ADDRESSES:89b5 CONF:3 0 CONF:0 0 CONF:0 0 CONF:0 0 CONF:0 0 CONF:0 BB SIZE:6
TAG:1d0 FORMAT:3 ENTANGLED_ADDRESSES:ed5 CONF:3 0 CONF:0 0 CONF:0 0 CONF:0 0 CONF:0 0 CONF:0 BB SIZE:1
TAG:187 FORMAT:2 ENTANGLED_ADDRESSES:edf891b CONF:3 edf891c CONF:3 ecc809c CONF:0 0 CONF:0 0 CONF:0 0 CONF:0 BB SIZE:7
TAG:4a7 FORMAT:4 ENTANGLED_ADDRESSES:b31 CONF:0 3781 CONF:0 b34 CONF:0 0 CONF:0 0 CONF:0 0 CONF:0 BB SIZE:0
TAG:57e FORMAT:4 ENTANGLED_ADDRESSES:1bd7 CONF:3 0 CONF:0 0 CONF:0 0 CONF:0 0 CONF:0 0 CONF:0 BB SIZE:0
TAG:1a7 FORMAT:3 ENTANGLED_ADDRESSES:14568 CONF:3 0 CONF:0 0 CONF:0 0 CONF:0 0 CONF:0 0 CONF:0 BB SIZE:8
TAG:5cc FORMAT:3 ENTANGLED_ADDRESSES:a235 CONF:3 0 CONF:0 0 CONF:0 0 CONF:0 0 CONF:0 0 CONF:0 BB SIZE:1
TAG:0 FORMAT:1 ENTANGLED_ADDRESSES:0 CONF:0 0 CONF:0 0 CONF:0 0 CONF:0 0 CONF:0 0 CONF:0 BB SIZE:0
TAG:0 FORMAT:1 ENTANGLED_ADDRESSES:0 CONF:0 0 CONF:0 0 CONF:0 0 CONF:0 0 CONF:0 0 CONF:0 BB SIZE:0
SET:43
TAG:1b4 FORMAT:2 ENTANGLED_ADDRESSES:edce107 CONF:3 edf891b CONF:3 ecce96a CONF:0 0 CONF:0 0 CONF:0 0 CONF:0 BB SIZE:3
TAG:1c4 FORMAT:3 ENTANGLED_ADDRESSES:79c5 CONF:1 79e9 CONF:2 3eb2 CONF:2 0 CONF:0 0 CONF:0 0 CONF:0 BB SIZE:3
TAG:7b FORMAT:3 ENTANGLED_ADDRESSES:8f39 CONF:3 1a76 CONF:2 14128 CONF:1 0 CONF:0 0 CONF:0 0 CONF:0 BB SIZE:1
TAG:1d0 FORMAT:1 ENTANGLED_ADDRESSES:3fffc0000202072 CONF:0 ebe CONF:0 12876 CONF:0 0 CONF:0 0 CONF:0 0 CONF:0 BB SIZE:2
TAG:153 FORMAT:3 ENTANGLED_ADDRESSES:510 CONF:0 cb2a CONF:0 eff4 CONF:0 0 CONF:0 0 CONF:0 0 CONF:0 BB SIZE:0
TAG:18b FORMAT:3 ENTANGLED_ADDRESSES:db41 CONF:3 46e7 CONF:3 0 CONF:0 0 CONF:0 0 CONF:0 0 CONF:0 BB SIZE:2
TAG:57e FORMAT:5 ENTANGLED_ADDRESSES:21f CONF:0 181 CONF:0 219 CONF:3 224 CONF:2 0 CONF:0 0 CONF:0 BB SIZE:1
TAG:3d3 FORMAT:3 ENTANGLED_ADDRESSES:fc63 CONF:3 254c0 CONF:3 0 CONF:0 0 CONF:0 0 CONF:0 0 CONF:0 BB SIZE:4
[...]
TAG:570 FORMAT:3 ENTANGLED_ADDRESSES:3c6c0 CONF:3 3c737 CONF:0 bbdc CONF:1 0 CONF:0 0 CONF:0 0 CONF:0 BB SIZE:1
TAG:175 FORMAT:3 ENTANGLED_ADDRESSES:f948 CONF:1 5bf2 CONF:3 0 CONF:0 0 CONF:0 0 CONF:0 0 CONF:0 BB SIZE:1
TAG:11f FORMAT:6 ENTANGLED_ADDRESSES:98 CONF:3 0 CONF:0 0 CONF:0 0 CONF:0 0 CONF:0 0 CONF:0 BB SIZE:1
TAG:67 FORMAT:1 ENTANGLED_ADDRESSES:0 CONF:0 0 CONF:0 0 CONF:0 0 CONF:0 0 CONF:0 0 CONF:0 BB SIZE:2
TAG:1c9 FORMAT:3 ENTANGLED_ADDRESSES:e363 CONF:2 0 CONF:0 0 CONF:0 0 CONF:0 0 CONF:0 0 CONF:0 BB SIZE:0
TAG:0 FORMAT:1 ENTANGLED_ADDRESSES:0 CONF:0 0 CONF:0 0 CONF:0 0 CONF:0 0 CONF:0 0 CONF:0 BB SIZE:0
SET:246
TAG:155 FORMAT:3 ENTANGLED_ADDRESSES:8878 CONF:3 8877 CONF:3 88b5 CONF:3 0 CONF:0 0 CONF:0 0 CONF:0 BB SIZE:1
TAG:1e5 FORMAT:3 ENTANGLED_ADDRESSES:16958 CONF:3 87de CONF:3 681d CONF:3 0 CONF:0 0 CONF:0 0 CONF:0 BB SIZE:1a
TAG:1c8 FORMAT:3 ENTANGLED_ADDRESSES:ae21 CONF:1 ae24 CONF:2 0 CONF:0 0 CONF:0 0 CONF:0 0 CONF:0 BB SIZE:0
TAG:105 FORMAT:3 ENTANGLED_ADDRESSES:5c14 CONF:2 162bc CONF:0 3752 CONF:1 0 CONF:0 0 CONF:0 0 CONF:0 BB SIZE:3
TAG:1d8 FORMAT:3 ENTANGLED_ADDRESSES:9a85 CONF:3 5aa6 CONF:3 5a9d CONF:3 0 CONF:0 0 CONF:0 0 CONF:0 BB SIZE:2
TAG:182 FORMAT:3 ENTANGLED_ADDRESSES:1f9b CONF:3 d059 CONF:3 242a CONF:2 0 CONF:0 0 CONF:0 0 CONF:0 BB SIZE:2
TAG:5c9 FORMAT:2 ENTANGLED_ADDRESSES:edbd3b8 CONF:2 edbd384 CONF:2 0 CONF:0 0 CONF:0 0 CONF:0 0 CONF:0 BB SIZE:1
TAG:14f FORMAT:2 ENTANGLED_ADDRESSES:edd0d13 CONF:2 edd0b33 CONF:2 0 CONF:0 0 CONF:0 0 CONF:0 0 CONF:0 BB SIZE:1
TAG:570 FORMAT:3 ENTANGLED_ADDRESSES:3c6bb CONF:3 3c6c0 CONF:0 0 CONF:0 0 CONF:0 0 CONF:0 0 CONF:0 BB SIZE:2
TAG:11a FORMAT:1 ENTANGLED_ADDRESSES:0 CONF:0 0 CONF:0 0 CONF:0 0 CONF:0 0 CONF:0 0 CONF:0 BB SIZE:7
TAG:11d FORMAT:2 ENTANGLED_ADDRESSES:ecc145e CONF:3 edcde74 CONF:3 0 CONF:0 0 CONF:0 0 CONF:0 0 CONF:0 BB SIZE:1
TAG:0 FORMAT:1 ENTANGLED_ADDRESSES:0 CONF:0 0 CONF:0 0 CONF:0 0 CONF:0 0 CONF:0 0 CONF:0 BB SIZE:0
TAG:0 FORMAT:1 ENTANGLED_ADDRESSES:0 CONF:0 0 CONF:0 0 CONF:0 0 CONF:0 0 CONF:0 0 CONF:0 BB SIZE:0
TAG:0 FORMAT:1 ENTANGLED_ADDRESSES:0 CONF:0 0 CONF:0 0 CONF:0 0 CONF:0 0 CONF:0 0 CONF:0 BB SIZE:0
TAG:0 FORMAT:1 ENTANGLED_ADDRESSES:0 CONF:0 0 CONF:0 0 CONF:0 0 CONF:0 0 CONF:0 0 CONF:0 BB SIZE:0
TAG:0 FORMAT:1 ENTANGLED_ADDRESSES:0 CONF:0 0 CONF:0 0 CONF:0 0 CONF:0 0 CONF:0 0 CONF:0 BB SIZE:0
SET:247
TAG:135 FORMAT:3 ENTANGLED_ADDRESSES:f9d7 CONF:3 3a7a CONF:3 3abb CONF:3 1c4b CONF:0 2b0 CONF:0 0 CONF:0 BB SIZE:3
TAG:67 FORMAT:6 ENTANGLED_ADDRESSES:f3 CONF:3 0 CONF:0 0 CONF:0 0 CONF:0 0 CONF:0 0 CONF:0 BB SIZE:7
TAG:3f8 FORMAT:3 ENTANGLED_ADDRESSES:4a84 CONF:1 3846 CONF:2 3c19 CONF:3 0 CONF:0 0 CONF:0 0 CONF:0 BB SIZE:0
TAG:130 FORMAT:4 ENTANGLED_ADDRESSES:1905 CONF:2 18f9 CONF:3 18b8 CONF:3 18c5 CONF:3 0 CONF:0 0 CONF:0 BB SIZE:1
TAG:28 FORMAT:3 ENTANGLED_ADDRESSES:3984 CONF:3 e37c CONF:2 e383 CONF:2 0 CONF:0 0 CONF:0 0 CONF:0 BB SIZE:2
TAG:120 FORMAT:3 ENTANGLED_ADDRESSES:ed4d CONF:2 d051 CONF:3 0 CONF:0 0 CONF:0 0 CONF:0 0 CONF:0 BB SIZE:9
TAG:570 FORMAT:3 ENTANGLED_ADDRESSES:3c7fb CONF:2 edfc753 CONF:0 0 CONF:0 0 CONF:0 0 CONF:0 0 CONF:0 BB SIZE:1
TAG:1c2 FORMAT:3 ENTANGLED_ADDRESSES:c73c CONF:3 4482 CONF:1 4485 CONF:3 0 CONF:0 0 CONF:0 0 CONF:0 BB SIZE:3
TAG:155 FORMAT:3 ENTANGLED_ADDRESSES:2404c CONF:0 2404f CONF:0 4654 CONF:3 0 CONF:0 0 CONF:0 0 CONF:0 BB SIZE:0
TAG:166 FORMAT:2 ENTANGLED_ADDRESSES:edf7755 CONF:3 edb5cab CONF:3 ecc0591 CONF:0 2a3 CONF:0 0 CONF:0 0 CONF:0 BB SIZE:2
TAG:5fb FORMAT:2 ENTANGLED_ADDRESSES:edbfe61 CONF:2 edbc859 CONF:3 0 CONF:0 0 CONF:0 0 CONF:0 0 CONF:0 BB SIZE:2
TAG:5c9 FORMAT:2 ENTANGLED_ADDRESSES:edb7d95 CONF:2 edc8f5c CONF:2 0 CONF:0 0 CONF:0 0 CONF:0 0 CONF:0 BB SIZE:1
TAG:1d3 FORMAT:3 ENTANGLED_ADDRESSES:93a3 CONF:3 cea CONF:2 0 CONF:0 0 CONF:0 0 CONF:0 0 CONF:0 BB SIZE:2
TAG:0 FORMAT:1 ENTANGLED_ADDRESSES:0 CONF:0 0 CONF:0 0 CONF:0 0 CONF:0 0 CONF:0 0 CONF:0 BB SIZE:0
TAG:0 FORMAT:1 ENTANGLED_ADDRESSES:0 CONF:0 0 CONF:0 0 CONF:0 0 CONF:0 0 CONF:0 0 CONF:0 BB SIZE:0
TAG:0 FORMAT:1 ENTANGLED_ADDRESSES:0 CONF:0 0 CONF:0 0 CONF:0 0 CONF:0 0 CONF:0 0 CONF:0 BB SIZE:0
SET:248
TAG:3f8 FORMAT:3 ENTANGLED_ADDRESSES:276f8 CONF:0 24a9 CONF:3 214a CONF:3 0 CONF:0 0 CONF:0 0 CONF:0 BB SIZE:1
TAG:10e FORMAT:1 ENTANGLED_ADDRESSES:0 CONF:0 0 CONF:0 0 CONF:0 0 CONF:0 0 CONF:0 0 CONF:0 BB SIZE:1
TAG:108 FORMAT:1 ENTANGLED_ADDRESSES:0 CONF:0 0 CONF:0 0 CONF:0 0 CONF:0 0 CONF:0 0 CONF:0 BB SIZE:5
TAG:3d3 FORMAT:3 ENTANGLED_ADDRESSES:25969 CONF:1 15d20 CONF:3 2776a CONF:3 0 CONF:0 0 CONF:0 0 CONF:0 BB SIZE:6
TAG:20 FORMAT:3 ENTANGLED_ADDRESSES:7f66 CONF:0 ed4d CONF:3 0 CONF:0 0 CONF:0 0 CONF:0 0 CONF:0 BB SIZE:3
TAG:120 FORMAT:3 ENTANGLED_ADDRESSES:d5ad CONF:3 ed4d CONF:2 9075 CONF:3 0 CONF:0 0 CONF:0 0 CONF:0 BB SIZE:a
TAG:11a FORMAT:2 ENTANGLED_ADDRESSES:edc7628 CONF:3 edcde6e CONF:3 145e CONF:0 0 CONF:0 0 CONF:0 0 CONF:0 BB SIZE:9
TAG:167 FORMAT:5 ENTANGLED_ADDRESSES:128 CONF:1 f3 CONF:0 c8 CONF:2 12d CONF:2 0 CONF:0 0 CONF:0 BB SIZE:1
TAG:570 FORMAT:4 ENTANGLED_ADDRESSES:1624 CONF:3 1621 CONF:3 1620 CONF:3 1632 CONF:3 0 CONF:0 0 CONF:0 BB SIZE:1
TAG:11f FORMAT:3 ENTANGLED_ADDRESSES:ce3 CONF:3 0 CONF:0 0 CONF:0 0 CONF:0 0 CONF:0 0 CONF:0 BB SIZE:1
TAG:17a FORMAT:6 ENTANGLED_ADDRESSES:9e CONF:3 84 CONF:3 0 CONF:0 0 CONF:0 0 CONF:0 0 CONF:0 BB SIZE:1
TAG:0 FORMAT:1 ENTANGLED_ADDRESSES:0 CONF:0 0 CONF:0 0 CONF:0 0 CONF:0 0 CONF:0 0 CONF:0 BB SIZE:0
TAG:0 FORMAT:1 ENTANGLED_ADDRESSES:0 CONF:0 0 CONF:0 0 CONF:0 0 CONF:0 0 CONF:0 0 CONF:0 BB SIZE:0
TAG:0 FORMAT:1 ENTANGLED_ADDRESSES:0 CONF:0 0 CONF:0 0 CONF:0 0 CONF:0 0 CONF:0 0 CONF:0 BB SIZE:0
TAG:0 FORMAT:1 ENTANGLED_ADDRESSES:0 CONF:0 0 CONF:0 0 CONF:0 0 CONF:0 0 CONF:0 0 CONF:0 BB SIZE:0
TAG:0 FORMAT:1 ENTANGLED_ADDRESSES:0 CONF:0 0 CONF:0 0 CONF:0 0 CONF:0 0 CONF:0 0 CONF:0 BB SIZE:0
SET:249
TAG:29 FORMAT:3 ENTANGLED_ADDRESSES:245c7 CONF:3 0 CONF:0 0 CONF:0 0 CONF:0 0 CONF:0 0 CONF:0 BB SIZE:0
TAG:3f8 FORMAT:3 ENTANGLED_ADDRESSES:20b3 CONF:3 214a CONF:3 212c CONF:3 0 CONF:0 0 CONF:0 0 CONF:0 BB SIZE:3
TAG:1e5 FORMAT:3 ENTANGLED_ADDRESSES:ef9 CONF:2 c481 CONF:3 0 CONF:0 0 CONF:0 0 CONF:0 0 CONF:0 BB SIZE:d
TAG:18d FORMAT:6 ENTANGLED_ADDRESSES:2b CONF:3 61 CONF:0 0 CONF:0 0 CONF:0 0 CONF:0 0 CONF:0 BB SIZE:5
TAG:67 FORMAT:3 ENTANGLED_ADDRESSES:2523 CONF:2 f1dd CONF:2 3329 CONF:3 0 CONF:0 0 CONF:0 0 CONF:0 BB SIZE:0
TAG:182 FORMAT:6 ENTANGLED_ADDRESSES:62 CONF:2 0 CONF:0 0 CONF:0 0 CONF:0 0 CONF:0 0 CONF:0 BB SIZE:1
TAG:165 FORMAT:1 ENTANGLED_ADDRESSES:3fffedfc827 CONF:1 88af CONF:0 20b4 CONF:0 0 CONF:0 0 CONF:0 0 CONF:0 BB SIZE:1
TAG:1f8 FORMAT:3 ENTANGLED_ADDRESSES:b140 CONF:3 2c2a CONF:3 571d CONF:3 0 CONF:0 0 CONF:0 0 CONF:0 BB SIZE:2
TAG:16f FORMAT:3 ENTANGLED_ADDRESSES:6f91 CONF:3 25519 CONF:2 709f CONF:2 0 CONF:0 0 CONF:0 0 CONF:0 BB SIZE:4
TAG:3d1 FORMAT:5 ENTANGLED_ADDRESSES:193 CONF:2 196 CONF:2 199 CONF:3 0 CONF:0 0 CONF:0 0 CONF:0 BB SIZE:2
TAG:393 FORMAT:2 ENTANGLED_ADDRESSES:edc817c CONF:2 edc817f CONF:2 0 CONF:0 0 CONF:0 0 CONF:0 0 CONF:0 BB SIZE:1
TAG:3d2 FORMAT:5 ENTANGLED_ADDRESSES:5b CONF:3 14b CONF:3 5d CONF:3 140 CONF:3 5f CONF:3 0 CONF:0 BB SIZE:2
TAG:3dd FORMAT:4 ENTANGLED_ADDRESSES:1554 CONF:1 1514 CONF:1 d2 CONF:1 1556 CONF:1 0 CONF:0 0 CONF:0 BB SIZE:0
TAG:5cf FORMAT:2 ENTANGLED_ADDRESSES:edbc8f9 CONF:3 edbc8f1 CONF:3 0 CONF:0 0 CONF:0 0 CONF:0 0 CONF:0 BB SIZE:0
TAG:154 FORMAT:3 ENTANGLED_ADDRESSES:38ad CONF:3 46fc CONF:3 f9d2 CONF:3 0 CONF:0 0 CONF:0 0 CONF:0 BB SIZE:1
TAG:1dc FORMAT:3 ENTANGLED_ADDRESSES:143 CONF:3 0 CONF:0 0 CONF:0 0 CONF:0 0 CONF:0 0 CONF:0 BB SIZE:1
SET:250
TAG:3f8 FORMAT:3 ENTANGLED_ADDRESSES:3aab CONF:3 3d3a CONF:3 3aa8 CONF:3 0 CONF:0 0 CONF:0 0 CONF:0 BB SIZE:1
TAG:1af FORMAT:1 ENTANGLED_ADDRESSES:0 CONF:0 0 CONF:0 0 CONF:0 0 CONF:0 0 CONF:0 0 CONF:0 BB SIZE:3
TAG:104 FORMAT:3 ENTANGLED_ADDRESSES:e80a CONF:3 0 CONF:0 0 CONF:0 0 CONF:0 0 CONF:0 0 CONF:0 BB SIZE:2
TAG:130 FORMAT:3 ENTANGLED_ADDRESSES:8869 CONF:3 38f6 CONF:0 3ea9 CONF:0 0 CONF:0 0 CONF:0 0 CONF:0 BB SIZE:3
TAG:169 FORMAT:3 ENTANGLED_ADDRESSES:77b3 CONF:3 871c CONF:3 8717 CONF:3 0 CONF:0 0 CONF:0 0 CONF:0 BB SIZE:2
TAG:17b FORMAT:4 ENTANGLED_ADDRESSES:f0f CONF:3 f0c CONF:3 0 CONF:0 0 CONF:0 0 CONF:0 0 CONF:0 BB SIZE:8
TAG:182 FORMAT:1 ENTANGLED_ADDRESSES:0 CONF:0 0 CONF:0 0 CONF:0 0 CONF:0 0 CONF:0 0 CONF:0 BB SIZE:1
TAG:545 FORMAT:3 ENTANGLED_ADDRESSES:10b47 CONF:3 0 CONF:0 0 CONF:0 0 CONF:0 0 CONF:0 0 CONF:0 BB SIZE:1
TAG:154 FORMAT:3 ENTANGLED_ADDRESSES:fa2a CONF:0 f9e5 CONF:3 46ea CONF:3 0 CONF:0 0 CONF:0 0 CONF:0 BB SIZE:4
TAG:3d2 FORMAT:3 ENTANGLED_ADDRESSES:7063 CONF:2 240d2 CONF:0 709c CONF:2 0 CONF:0 0 CONF:0 0 CONF:0 BB SIZE:1
TAG:3dc FORMAT:3 ENTANGLED_ADDRESSES:46bd CONF:3 26393 CONF:3 23f08 CONF:3 7f CONF:0 25a15 CONF:0 0 CONF:0 BB SIZE:2
TAG:166 FORMAT:3 ENTANGLED_ADDRESSES:165 CONF:3 bee CONF:3 967f CONF:0 0 CONF:0 0 CONF:0 0 CONF:0 BB SIZE:1
TAG:3f9 FORMAT:2 ENTANGLED_ADDRESSES:edcac8a CONF:2 0 CONF:0 0 CONF:0 0 CONF:0 0 CONF:0 0 CONF:0 BB SIZE:2
TAG:17a FORMAT:3 ENTANGLED_ADDRESSES:5bf7 CONF:2 5be0 CONF:3 5bf0 CONF:1 0 CONF:0 0 CONF:0 0 CONF:0 BB SIZE:2
TAG:133 FORMAT:3 ENTANGLED_ADDRESSES:4654 CONF:3 3d40 CONF:2 3a64 CONF:3 0 CONF:0 0 CONF:0 0 CONF:0 BB SIZE:1
TAG:5cf FORMAT:2 ENTANGLED_ADDRESSES:edc2700 CONF:3 edbd8c1 CONF:2 0 CONF:0 0 CONF:0 0 CONF:0 0 CONF:0 BB SIZE:1
SET:251
TAG:167 FORMAT:5 ENTANGLED_ADDRESSES:12c CONF:3 0 CONF:0 0 CONF:0 0 CONF:0 0 CONF:0 0 CONF:0 BB SIZE:1
TAG:104 FORMAT:3 ENTANGLED_ADDRESSES:127e4 CONF:3 0 CONF:0 0 CONF:0 0 CONF:0 0 CONF:0 0 CONF:0 BB SIZE:3
TAG:169 FORMAT:3 ENTANGLED_ADDRESSES:fc1a CONF:3 177a CONF:0 77a4 CONF:2 79d6 CONF:3 0 CONF:0 0 CONF:0 BB SIZE:3
TAG:3d7 FORMAT:4 ENTANGLED_ADDRESSES:4da CONF:3 5d3 CONF:3 0 CONF:0 0 CONF:0 0 CONF:0 0 CONF:0 BB SIZE:0
TAG:1c8 FORMAT:3 ENTANGLED_ADDRESSES:db1c CONF:2 0 CONF:0 0 CONF:0 0 CONF:0 0 CONF:0 0 CONF:0 BB SIZE:1
TAG:17b FORMAT:3 ENTANGLED_ADDRESSES:3fc0 CONF:2 0 CONF:0 0 CONF:0 0 CONF:0 0 CONF:0 0 CONF:0 BB SIZE:5
TAG:7b FORMAT:3 ENTANGLED_ADDRESSES:8be8 CONF:3 0 CONF:0 0 CONF:0 0 CONF:0 0 CONF:0 0 CONF:0 BB SIZE:0
TAG:3c2 FORMAT:3 ENTANGLED_ADDRESSES:6f91 CONF:2 709b CONF:3 709c CONF:3 0 CONF:0 0 CONF:0 0 CONF:0 BB SIZE:2
TAG:29 FORMAT:3 ENTANGLED_ADDRESSES:24461 CONF:3 2445c CONF:3 277e1 CONF:3 0 CONF:0 0 CONF:0 0 CONF:0 BB SIZE:2
TAG:1ac FORMAT:3 ENTANGLED_ADDRESSES:151e7 CONF:3 c5ab CONF:2 0 CONF:0 0 CONF:0 0 CONF:0 0 CONF:0 BB SIZE:1
TAG:166 FORMAT:3 ENTANGLED_ADDRESSES:5a5f CONF:3 5a6 CONF:3 6d3 CONF:3 0 CONF:0 0 CONF:0 0 CONF:0 BB SIZE:0
TAG:51 FORMAT:3 ENTANGLED_ADDRESSES:77d0 CONF:3 77cc CONF:3 162b1 CONF:3 0 CONF:0 0 CONF:0 0 CONF:0 BB SIZE:9
TAG:120 FORMAT:3 ENTANGLED_ADDRESSES:57ab CONF:3 c256 CONF:3 a94f CONF:3 0 CONF:0 0 CONF:0 0 CONF:0 BB SIZE:0
TAG:132 FORMAT:4 ENTANGLED_ADDRESSES:1c55 CONF:0 1a98 CONF:3 1a82 CONF:3 0 CONF:0 0 CONF:0 0 CONF:0 BB SIZE:2
TAG:129 FORMAT:1 ENTANGLED_ADDRESSES:0 CONF:0 0 CONF:0 0 CONF:0 0 CONF:0 0 CONF:0 0 CONF:0 BB SIZE:1
TAG:133 FORMAT:3 ENTANGLED_ADDRESSES:276f8 CONF:3 3a64 CONF:2 3b4b CONF:3 0 CONF:0 0 CONF:0 0 CONF:0 BB SIZE:2
SET:252
TAG:3f8 FORMAT:3 ENTANGLED_ADDRESSES:228c6 CONF:3 3d3a CONF:3 38bd CONF:3 0 CONF:0 0 CONF:0 0 CONF:0 BB SIZE:3
TAG:61 FORMAT:3 ENTANGLED_ADDRESSES:15c23 CONF:2 a66c CONF:2 0 CONF:0 0 CONF:0 0 CONF:0 0 CONF:0 BB SIZE:5
TAG:18d FORMAT:1 ENTANGLED_ADDRESSES:0 CONF:0 0 CONF:0 0 CONF:0 0 CONF:0 0 CONF:0 0 CONF:0 BB SIZE:8
TAG:104 FORMAT:6 ENTANGLED_ADDRESSES:68 CONF:2 6b CONF:2 0 CONF:0 0 CONF:0 0 CONF:0 0 CONF:0 BB SIZE:0
TAG:1d3 FORMAT:6 ENTANGLED_ADDRESSES:93 CONF:1 0 CONF:0 0 CONF:0 0 CONF:0 0 CONF:0 0 CONF:0 BB SIZE:b
TAG:1c5 FORMAT:3 ENTANGLED_ADDRESSES:11547 CONF:2 11573 CONF:2 15004 CONF:3 0 CONF:0 0 CONF:0 0 CONF:0 BB SIZE:3
TAG:130 FORMAT:3 ENTANGLED_ADDRESSES:7e6a CONF:3 886c CONF:2 0 CONF:0 0 CONF:0 0 CONF:0 0 CONF:0 BB SIZE:1
TAG:155 FORMAT:3 ENTANGLED_ADDRESSES:7fea CONF:0 7858 CONF:3 7ff0 CONF:0 0 CONF:0 0 CONF:0 0 CONF:0 BB SIZE:2
TAG:17b FORMAT:4 ENTANGLED_ADDRESSES:f0f CONF:2 f0c CONF:2 0 CONF:0 0 CONF:0 0 CONF:0 0 CONF:0 BB SIZE:1
TAG:182 FORMAT:3 ENTANGLED_ADDRESSES:4671 CONF:3 d064 CONF:3 d059 CONF:2 0 CONF:0 0 CONF:0 0 CONF:0 BB SIZE:1
TAG:154 FORMAT:4 ENTANGLED_ADDRESSES:6e0 CONF:3 a87 CONF:0 83c CONF:3 9f3 CONF:3 0 CONF:0 0 CONF:0 BB SIZE:2
TAG:19d FORMAT:3 ENTANGLED_ADDRESSES:c9cc CONF:3 42a7 CONF:2 6a83 CONF:2 0 CONF:0 0 CONF:0 0 CONF:0 BB SIZE:13
TAG:3d2 FORMAT:5 ENTANGLED_ADDRESSES:5b CONF:3 0 CONF:0 0 CONF:0 0 CONF:0 0 CONF:0 0 CONF:0 BB SIZE:1
TAG:5c9 FORMAT:2 ENTANGLED_ADDRESSES:edbd39c CONF:3 0 CONF:0 0 CONF:0 0 CONF:0 0 CONF:0 0 CONF:0 BB SIZE:2
TAG:5cc FORMAT:1 ENTANGLED_ADDRESSES:0 CONF:0 0 CONF:0 0 CONF:0 0 CONF:0 0 CONF:0 0 CONF:0 BB SIZE:1
TAG:0 FORMAT:1 ENTANGLED_ADDRESSES:0 CONF:0 0 CONF:0 0 CONF:0 0 CONF:0 0 CONF:0 0 CONF:0 BB SIZE:0
SET:253
TAG:15b FORMAT:2 ENTANGLED_ADDRESSES:edb5cba CONF:3 0 CONF:0 0 CONF:0 0 CONF:0 0 CONF:0 0 CONF:0 BB SIZE:1
TAG:165 FORMAT:3 ENTANGLED_ADDRESSES:88af CONF:2 88af CONF:0 20bb CONF:2 0 CONF:0 0 CONF:0 0 CONF:0 BB SIZE:1
TAG:83 FORMAT:5 ENTANGLED_ADDRESSES:18f CONF:3 0 CONF:0 0 CONF:0 0 CONF:0 0 CONF:0 0 CONF:0 BB SIZE:1
TAG:1c4 FORMAT:3 ENTANGLED_ADDRESSES:79b9 CONF:3 79eb CONF:2 79c3 CONF:2 fcfc CONF:0 0 CONF:0 0 CONF:0 BB SIZE:1
TAG:105 FORMAT:3 ENTANGLED_ADDRESSES:a3a3 CONF:3 5c24 CONF:1 783a CONF:2 0 CONF:0 0 CONF:0 0 CONF:0 BB SIZE:7
TAG:1c8 FORMAT:4 ENTANGLED_ADDRESSES:815 CONF:0 0 CONF:0 0 CONF:0 0 CONF:0 0 CONF:0 0 CONF:0 BB SIZE:2
TAG:1a9 FORMAT:2 ENTANGLED_ADDRESSES:edb5ca9 CONF:2 ecc358d CONF:2 0 CONF:0 0 CONF:0 0 CONF:0 0 CONF:0 BB SIZE:1
TAG:7b FORMAT:6 ENTANGLED_ADDRESSES:98 CONF:2 0 CONF:0 0 CONF:0 0 CONF:0 0 CONF:0 0 CONF:0 BB SIZE:1
TAG:1f5 FORMAT:3 ENTANGLED_ADDRESSES:29e8 CONF:3 101ef CONF:3 10a2d CONF:3 0 CONF:0 0 CONF:0 0 CONF:0 BB SIZE:1
TAG:120 FORMAT:3 ENTANGLED_ADDRESSES:d5ad CONF:3 0 CONF:0 0 CONF:0 0 CONF:0 0 CONF:0 0 CONF:0 BB SIZE:1
TAG:570 FORMAT:2 ENTANGLED_ADDRESSES:edb5caa CONF:3 edb5c9b CONF:3 0 CONF:0 0 CONF:0 0 CONF:0 0 CONF:0 BB SIZE:5
TAG:545 FORMAT:6 ENTANGLED_ADDRESSES:98 CONF:3 0 CONF:0 0 CONF:0 0 CONF:0 0 CONF:0 0 CONF:0 BB SIZE:2
TAG:154 FORMAT:3 ENTANGLED_ADDRESSES:3902 CONF:3 4aa1 CONF:0 4707 CONF:3 0 CONF:0 0 CONF:0 0 CONF:0 BB SIZE:1
TAG:3d1 FORMAT:3 ENTANGLED_ADDRESSES:2559a CONF:3 25591 CONF:3 2768f CONF:3 0 CONF:0 0 CONF:0 0 CONF:0 BB SIZE:2
TAG:3f8 FORMAT:3 ENTANGLED_ADDRESSES:46f4 CONF:1 f7c9 CONF:3 4afe CONF:1 0 CONF:0 0 CONF:0 0 CONF:0 BB SIZE:0
TAG:195 FORMAT:2 ENTANGLED_ADDRESSES:e8e4979 CONF:3 e8e49be CONF:3 0 CONF:0 0 CONF:0 0 CONF:0 0 CONF:0 BB SIZE:8
SET:254
TAG:195 FORMAT:3 ENTANGLED_ADDRESSES:80a5 CONF:1 edf8900 CONF:0 0 CONF:0 0 CONF:0 0 CONF:0 0 CONF:0 BB SIZE:7
TAG:1c8 FORMAT:4 ENTANGLED_ADDRESSES:628 CONF:3 16d2 CONF:3 828 CONF:3 954 CONF:3 0 CONF:0 0 CONF:0 BB SIZE:1
TAG:1af FORMAT:4 ENTANGLED_ADDRESSES:1bbc CONF:0 0 CONF:0 0 CONF:0 0 CONF:0 0 CONF:0 0 CONF:0 BB SIZE:6
TAG:67 FORMAT:3 ENTANGLED_ADDRESSES:e820 CONF:3 d897 CONF:3 d8a1 CONF:3 0 CONF:0 0 CONF:0 0 CONF:0 BB SIZE:9
TAG:104 FORMAT:6 ENTANGLED_ADDRESSES:6b CONF:2 0 CONF:0 0 CONF:0 0 CONF:0 0 CONF:0 0 CONF:0 BB SIZE:1
TAG:52 FORMAT:1 ENTANGLED_ADDRESSES:0 CONF:0 0 CONF:0 0 CONF:0 0 CONF:0 0 CONF:0 0 CONF:0 BB SIZE:1
TAG:15b FORMAT:2 ENTANGLED_ADDRESSES:edf7266 CONF:3 edbe383 CONF:0 0 CONF:0 0 CONF:0 0 CONF:0 0 CONF:0 BB SIZE:2
TAG:3d7 FORMAT:4 ENTANGLED_ADDRESSES:1a27 CONF:2 1356 CONF:3 1a36 CONF:2 1a2c CONF:2 0 CONF:0 0 CONF:0 BB SIZE:3
TAG:3dc FORMAT:3 ENTANGLED_ADDRESSES:4688 CONF:3 25459 CONF:3 2553c CONF:3 0 CONF:0 0 CONF:0 0 CONF:0 BB SIZE:5
TAG:166 FORMAT:3 ENTANGLED_ADDRESSES:400 CONF:2 9d7c CONF:1 2788 CONF:3 649 CONF:0 0 CONF:0 0 CONF:0 BB SIZE:3
TAG:5c9 FORMAT:1 ENTANGLED_ADDRESSES:0 CONF:0 0 CONF:0 0 CONF:0 0 CONF:0 0 CONF:0 0 CONF:0 BB SIZE:1
TAG:14f FORMAT:6 ENTANGLED_ADDRESSES:f2 CONF:2 f7 CONF:3 0 CONF:0 0 CONF:0 0 CONF:0 0 CONF:0 BB SIZE:5
TAG:132 FORMAT:6 ENTANGLED_ADDRESSES:55 CONF:0 55 CONF:0 51 CONF:0 0 CONF:0 0 CONF:0 0 CONF:0 BB SIZE:1
TAG:5cc FORMAT:1 ENTANGLED_ADDRESSES:0 CONF:0 0 CONF:0 0 CONF:0 0 CONF:0 0 CONF:0 0 CONF:0 BB SIZE:1
TAG:83 FORMAT:1 ENTANGLED_ADDRESSES:0 CONF:0 0 CONF:0 0 CONF:0 0 CONF:0 0 CONF:0 0 CONF:0 BB SIZE:1
TAG:0 FORMAT:1 ENTANGLED_ADDRESSES:0 CONF:0 0 CONF:0 0 CONF:0 0 CONF:0 0 CONF:0 0 CONF:0 BB SIZE:0
SET:255
TAG:18d FORMAT:6 ENTANGLED_ADDRESSES:3d CONF:3 0 CONF:0 0 CONF:0 0 CONF:0 0 CONF:0 0 CONF:0 BB SIZE:7
TAG:1a9 FORMAT:2 ENTANGLED_ADDRESSES:e8e49be CONF:3 edf88fe CONF:3 0 CONF:0 0 CONF:0 0 CONF:0 0 CONF:0 BB SIZE:0
TAG:169 FORMAT:3 ENTANGLED_ADDRESSES:79e6 CONF:3 f7e8 CONF:3 f7f0 CONF:3 0 CONF:0 0 CONF:0 0 CONF:0 BB SIZE:3
TAG:104 FORMAT:6 ENTANGLED_ADDRESSES:6b CONF:2 0 CONF:0 0 CONF:0 0 CONF:0 0 CONF:0 0 CONF:0 BB SIZE:0
TAG:14f FORMAT:2 ENTANGLED_ADDRESSES:edcba33 CONF:2 13cb8 CONF:0 ecd3cc1 CONF:3 0 CONF:0 0 CONF:0 0 CONF:0 BB SIZE:7
TAG:5c9 FORMAT:2 ENTANGLED_ADDRESSES:edbc80f CONF:2 0 CONF:0 0 CONF:0 0 CONF:0 0 CONF:0 0 CONF:0 BB SIZE:6
TAG:3dd FORMAT:6 ENTANGLED_ADDRESSES:74 CONF:1 71 CONF:2 0 CONF:0 0 CONF:0 0 CONF:0 0 CONF:0 BB SIZE:1
TAG:3d1 FORMAT:5 ENTANGLED_ADDRESSES:311 CONF:3 0 CONF:0 0 CONF:0 0 CONF:0 0 CONF:0 0 CONF:0 BB SIZE:1
TAG:3f8 FORMAT:3 ENTANGLED_ADDRESSES:588f CONF:3 276ff CONF:2 20b3 CONF:3 0 CONF:0 0 CONF:0 0 CONF:0 BB SIZE:2
TAG:17a FORMAT:1 ENTANGLED_ADDRESSES:0 CONF:0 0 CONF:0 0 CONF:0 0 CONF:0 0 CONF:0 0 CONF:0 BB SIZE:6
TAG:65 FORMAT:2 ENTANGLED_ADDRESSES:edcba2d CONF:3 edff40c CONF:3 0 CONF:0 0 CONF:0 0 CONF:0 0 CONF:0 BB SIZE:7
TAG:83 FORMAT:6 ENTANGLED_ADDRESSES:b4 CONF:2 0 CONF:0 0 CONF:0 0 CONF:0 0 CONF:0 0 CONF:0 BB SIZE:1
TAG:154 FORMAT:4 ENTANGLED_ADDRESSES:a87 CONF:2 0 CONF:0 0 CONF:0 0 CONF:0 0 CONF:0 0 CONF:0 BB SIZE:0
TAG:0 FORMAT:1 ENTANGLED_ADDRESSES:0 CONF:0 0 CONF:0 0 CONF:0 0 CONF:0 0 CONF:0 0 CONF:0 BB SIZE:0
TAG:0 FORMAT:1 ENTANGLED_ADDRESSES:0 CONF:0 0 CONF:0 0 CONF:0 0 CONF:0 0 CONF:0 0 CONF:0 BB SIZE:0
TAG:0 FORMAT:1 ENTANGLED_ADDRESSES:0 CONF:0 0 CONF:0 0 CONF:0 0 CONF:0 0 CONF:0 0 CONF:0 BB SIZE:0
SET:256
TAG:132 FORMAT:4 ENTANGLED_ADDRESSES:1a7e CONF:3 1c44 CONF:3 1c20 CONF:3 1a98 CONF:3 0 CONF:0 0 CONF:0 BB SIZE:6
TAG:1af FORMAT:3 ENTANGLED_ADDRESSES:3bcb CONF:3 3bbf CONF:0 0 CONF:0 0 CONF:0 0 CONF:0 0 CONF:0 BB SIZE:4
TAG:1e8 FORMAT:3 ENTANGLED_ADDRESSES:ef3a CONF:3 a4de CONF:2 0 CONF:0 0 CONF:0 0 CONF:0 0 CONF:0 BB SIZE:1
TAG:545 FORMAT:1 ENTANGLED_ADDRESSES:0 CONF:0 0 CONF:0 0 CONF:0 0 CONF:0 0 CONF:0 0 CONF:0 BB SIZE:1
TAG:5cc FORMAT:6 ENTANGLED_ADDRESSES:e3 CONF:0 0 CONF:0 0 CONF:0 0 CONF:0 0 CONF:0 0 CONF:0 BB SIZE:1
TAG:0 FORMAT:1 ENTANGLED_ADDRESSES:0 CONF:0 0 CONF:0 0 CONF:0 0 CONF:0 0 CONF:0 0 CONF:0 BB SIZE:0
TAG:0 FORMAT:1 ENTANGLED_ADDRESSES:0 CONF:0 0 CONF:0 0 CONF:0 0 CONF:0 0 CONF:0 0 CONF:0 BB SIZE:0
TAG:0 FORMAT:1 ENTANGLED_ADDRESSES:0 CONF:0 0 CONF:0 0 CONF:0 0 CONF:0 0 CONF:0 0 CONF:0 BB SIZE:0
TAG:0 FORMAT:1 ENTANGLED_ADDRESSES:0 CONF:0 0 CONF:0 0 CONF:0 0 CONF:0 0 CONF:0 0 CONF:0 BB SIZE:0
TAG:0 FORMAT:1 ENTANGLED_ADDRESSES:0 CONF:0 0 CONF:0 0 CONF:0 0 CONF:0 0 CONF:0 0 CONF:0 BB SIZE:0
TAG:0 FORMAT:1 ENTANGLED_ADDRESSES:0 CONF:0 0 CONF:0 0 CONF:0 0 CONF:0 0 CONF:0 0 CONF:0 BB SIZE:0
TAG:0 FORMAT:1 ENTANGLED_ADDRESSES:0 CONF:0 0 CONF:0 0 CONF:0 0 CONF:0 0 CONF:0 0 CONF:0 BB SIZE:0
TAG:0 FORMAT:1 ENTANGLED_ADDRESSES:0 CONF:0 0 CONF:0 0 CONF:0 0 CONF:0 0 CONF:0 0 CONF:0 BB SIZE:0
TAG:0 FORMAT:1 ENTANGLED_ADDRESSES:0 CONF:0 0 CONF:0 0 CONF:0 0 CONF:0 0 CONF:0 0 CONF:0 BB SIZE:0
TAG:0 FORMAT:1 ENTANGLED_ADDRESSES:0 CONF:0 0 CONF:0 0 CONF:0 0 CONF:0 0 CONF:0 0 CONF:0 BB SIZE:0
TAG:0 FORMAT:1 ENTANGLED_ADDRESSES:0 CONF:0 0 CONF:0 0 CONF:0 0 CONF:0 0 CONF:0 0 CONF:0 BB SIZE:0

DRAM Statistics
 CHANNEL 0
 RQ ROW_BUFFER_HIT:       62bc  ROW_BUFFER_MISS:      1b352
 DBUS AVG_CONGESTED_CYCLE:    3.92722
 WQ ROW_BUFFER_HIT:       257f  ROW_BUFFER_MISS:       fce3  FULL:          0


CPU 0 Branch Prediction Accuracy: 96.6016% MPKI: 5.79848 Average ROB Occupancy at Mispredict: 200.54
Branch type MPKI
BRANCH_DIRECT_JUMP: 0.0432
BRANCH_INDIRECT: 0.12976
BRANCH_CONDITIONAL: 4.13252
BRANCH_DIRECT_CALL: 0.06328
BRANCH_INDIRECT_CALL: 0.0208
BRANCH_RETURN: 1.40892

