WARNING: physical memory size is smaller than virtual memory size.
WARNING: option --warmup_instructions is deprecated. Use --warmup-instructions instead.
WARNING: option --simulation_instructions is deprecated. Use --simulation-instructions instead.

*** ChampSim Multicore Out-of-Order Simulator ***
Warmup Instructions: 25000000
Simulation Instructions: 25000000
Number of CPUs: 1
Page size: 4096

Off-chip DRAM Size: 4 GiB Channels: 1 Width: 64-bit Data Race: 3200 MT/s
Heartbeat CPU 0 instructions: 10000001 cycles: 2500584 heartbeat IPC: 3.999 cumulative IPC: 3.999 (Simulation time: 00 hr 00 min 25 sec)
Heartbeat CPU 0 instructions: 20000000 cycles: 5003825 heartbeat IPC: 3.995 cumulative IPC: 3.997 (Simulation time: 00 hr 00 min 51 sec)
Warmup finished CPU 0 instructions: 25000000 cycles: 6253934 cumulative IPC: 3.997 (Simulation time: 00 hr 01 min 03 sec)
Warmup complete CPU 0 instructions: 25000000 cycles: 6253934 cumulative IPC: 3.997 (Simulation time: 00 hr 01 min 03 sec)
Heartbeat CPU 0 instructions: 30000000 cycles: 9374374 heartbeat IPC: 2.288 cumulative IPC: 1.602 (Simulation time: 00 hr 01 min 25 sec)
Heartbeat CPU 0 instructions: 40000004 cycles: 16944911 heartbeat IPC: 1.321 cumulative IPC: 1.403 (Simulation time: 00 hr 02 min 16 sec)
Heartbeat CPU 0 instructions: 50000002 cycles: 23220844 heartbeat IPC: 1.593 cumulative IPC: 1.473 (Simulation time: 00 hr 02 min 56 sec)
Simulation finished CPU 0 instructions: 25000002 cycles: 16966911 cumulative IPC: 1.473 (Simulation time: 00 hr 02 min 56 sec)
Simulation complete CPU 0 instructions: 25000002 cycles: 16966911 cumulative IPC: 1.473 (Simulation time: 00 hr 02 min 56 sec)

ChampSim completed all CPUs

=== Simulation ===
CPU 0 runs ipc1_public/server_003.champsimtrace.xz
Region of Interest Statistics

CPU 0 cumulative IPC: 1.473 instructions: 25000002 cycles: 16966911
CPU 0 Branch Prediction Accuracy: 94.01% MPKI: 12.46 Average ROB Occupancy at Mispredict: 51.35
Branch type MPKI
BRANCH_DIRECT_JUMP: 0.303
BRANCH_INDIRECT: 0.539
BRANCH_CONDITIONAL: 7.45
BRANCH_DIRECT_CALL: 0.55
BRANCH_INDIRECT_CALL: 2.72
BRANCH_RETURN: 0.901

LLC TOTAL        ACCESS:     483033 HIT:     400662 MISS:      82371
LLC LOAD         ACCESS:     247469 HIT:     222028 MISS:      25441
LLC RFO          ACCESS:      46044 HIT:      17091 MISS:      28953
LLC PREFETCH     ACCESS:      83330 HIT:      62957 MISS:      20373
LLC WRITE        ACCESS:      81357 HIT:      81160 MISS:        197
LLC TRANSLATION  ACCESS:      24833 HIT:      17426 MISS:       7407
LLC PREFETCH REQUESTED:          0 ISSUED:          0 USEFUL:          0 USELESS:          0
LLC AVERAGE MISS LATENCY: 249.2 cycles
cpu0_DTLB TOTAL        ACCESS:    5877542 HIT:    5570627 MISS:     306915
cpu0_DTLB LOAD         ACCESS:    5877542 HIT:    5570627 MISS:     306915
cpu0_DTLB RFO          ACCESS:          0 HIT:          0 MISS:          0
cpu0_DTLB PREFETCH     ACCESS:          0 HIT:          0 MISS:          0
cpu0_DTLB WRITE        ACCESS:          0 HIT:          0 MISS:          0
cpu0_DTLB TRANSLATION  ACCESS:          0 HIT:          0 MISS:          0
cpu0_DTLB PREFETCH REQUESTED:          0 ISSUED:          0 USEFUL:          0 USELESS:          0
cpu0_DTLB AVERAGE MISS LATENCY: 11.29 cycles
cpu0_ITLB TOTAL        ACCESS:    1609778 HIT:    1425650 MISS:     184128
cpu0_ITLB LOAD         ACCESS:    1609778 HIT:    1425650 MISS:     184128
cpu0_ITLB RFO          ACCESS:          0 HIT:          0 MISS:          0
cpu0_ITLB PREFETCH     ACCESS:          0 HIT:          0 MISS:          0
cpu0_ITLB WRITE        ACCESS:          0 HIT:          0 MISS:          0
cpu0_ITLB TRANSLATION  ACCESS:          0 HIT:          0 MISS:          0
cpu0_ITLB PREFETCH REQUESTED:          0 ISSUED:          0 USEFUL:          0 USELESS:          0
cpu0_ITLB AVERAGE MISS LATENCY: 6.129 cycles
cpu0_L1D TOTAL        ACCESS:   11080025 HIT:    9937640 MISS:    1142385
cpu0_L1D LOAD         ACCESS:    5023144 HIT:    4539135 MISS:     484009
cpu0_L1D RFO          ACCESS:          0 HIT:          0 MISS:          0
cpu0_L1D PREFETCH     ACCESS:    3521547 HIT:    3102731 MISS:     418816
cpu0_L1D WRITE        ACCESS:    2502445 HIT:    2293009 MISS:     209436
cpu0_L1D TRANSLATION  ACCESS:      32889 HIT:       2765 MISS:      30124
cpu0_L1D PREFETCH REQUESTED:    5070856 ISSUED:    3521545 USEFUL:      72897 USELESS:     169263
cpu0_L1D AVERAGE MISS LATENCY: 23.57 cycles
cpu0_L1I TOTAL        ACCESS:    1864413 HIT:    1146771 MISS:     717642
cpu0_L1I LOAD         ACCESS:    1864413 HIT:    1146771 MISS:     717642
cpu0_L1I RFO          ACCESS:          0 HIT:          0 MISS:          0
cpu0_L1I PREFETCH     ACCESS:          0 HIT:          0 MISS:          0
cpu0_L1I WRITE        ACCESS:          0 HIT:          0 MISS:          0
cpu0_L1I TRANSLATION  ACCESS:          0 HIT:          0 MISS:          0
cpu0_L1I PREFETCH REQUESTED:          0 ISSUED:          0 USEFUL:          0 USELESS:          0
cpu0_L1I AVERAGE MISS LATENCY: 14.81 cycles
cpu0_L2C TOTAL        ACCESS:    1252479 HIT:     850467 MISS:     402012
cpu0_L2C LOAD         ACCESS:     768847 HIT:     521376 MISS:     247471
cpu0_L2C RFO          ACCESS:      68076 HIT:      22032 MISS:      46044
cpu0_L2C PREFETCH     ACCESS:     242136 HIT:     158806 MISS:      83330
cpu0_L2C WRITE        ACCESS:     143594 HIT:     143260 MISS:        334
cpu0_L2C TRANSLATION  ACCESS:      29826 HIT:       4993 MISS:      24833
cpu0_L2C PREFETCH REQUESTED:          0 ISSUED:          0 USEFUL:          0 USELESS:          0
cpu0_L2C AVERAGE MISS LATENCY: 71.27 cycles
cpu0_STLB TOTAL        ACCESS:     284532 HIT:     258039 MISS:      26493
cpu0_STLB LOAD         ACCESS:     284532 HIT:     258039 MISS:      26493
cpu0_STLB RFO          ACCESS:          0 HIT:          0 MISS:          0
cpu0_STLB PREFETCH     ACCESS:          0 HIT:          0 MISS:          0
cpu0_STLB WRITE        ACCESS:          0 HIT:          0 MISS:          0
cpu0_STLB TRANSLATION  ACCESS:          0 HIT:          0 MISS:          0
cpu0_STLB PREFETCH REQUESTED:          0 ISSUED:          0 USEFUL:          0 USELESS:          0
cpu0_STLB AVERAGE MISS LATENCY: 116.6 cycles

DRAM Statistics

Channel 0 RQ ROW_BUFFER_HIT:      25118
  ROW_BUFFER_MISS:      57052
 AVG DBUS CONGESTED CYCLE: 3.914
WQ ROW_BUFFER_HIT: Channel 0 
  ROW_BUFFER_MISS:       5421
  FULL:      27223
