
*** ChampSim Multicore Out-of-Order Simulator ***

Warmup Instructions: 25000000
Simulation Instructions: 25000000
Number of CPUs: 1
Off-chip DRAM Size: 4 GiB Channels: 1 Width: 64-bit Data Rate: 3200 MT/s

VirtualMemory physical capacity: 8588881920 num_ppages: 2096895
VirtualMemory page size: 4096 log2_page_size: 12

CPU 0 runs ipc1_public/server_002.champsimtrace.xz
Basic BTB sets: 1024 ways: 8 indirect buffer size: 4096 RAS size: 64
CPU 0 Entangling prefetcher
cpu0_STLB next line prefetcher
cpu0_L1D next line prefetcher
WARNING: The extended signature CACHE::prefetch_line(ip, base_addr, pf_addr, fill_this_level, prefetch_metadata) is deprecated.
WARNING: Use CACHE::prefetch_line(pf_addr, fill_this_level, prefetch_metadata) instead.
Heartbeat CPU 0 instructions: 10000000 cycles: 2503947 heartbeat IPC: 3.99369 cumulative IPC: 3.99369 (Simulation time: 0 hr 0 min 29 sec) 
Heartbeat CPU 0 instructions: 20000002 cycles: 5032497 heartbeat IPC: 3.95484 cumulative IPC: 3.97417 (Simulation time: 0 hr 0 min 58 sec) 

Warmup complete CPU 0 instructions: 25000002 cycles: 6282497 (Simulation time: 0 hr 1 min 13 sec) 

Heartbeat CPU 0 instructions: 30000001 cycles: 10215856 heartbeat IPC: 1.92925 cumulative IPC: 1.27118 (Simulation time: 0 hr 1 min 39 sec) 
Heartbeat CPU 0 instructions: 40000004 cycles: 17526984 heartbeat IPC: 1.36778 cumulative IPC: 1.33399 (Simulation time: 0 hr 2 min 32 sec) 
Heartbeat CPU 0 instructions: 50000000 cycles: 24836166 heartbeat IPC: 1.36814 cumulative IPC: 1.34744 (Simulation time: 0 hr 3 min 24 sec) 
Finished CPU 0 instructions: 25000002 cycles: 18553673 cumulative IPC: 1.34744 (Simulation time: 0 hr 3 min 24 sec) 

ChampSim completed all CPUs

Region of Interest Statistics

CPU 0 cumulative IPC: 1.34744 instructions: 25000002 cycles: 18553673
cpu0_DTLB TOTAL     ACCESS:    5247897  HIT:    5119988  MISS:     127909
cpu0_DTLB LOAD      ACCESS:    2665185  HIT:    2549105  MISS:     116080
cpu0_DTLB RFO       ACCESS:    2582712  HIT:    2570883  MISS:      11829
cpu0_DTLB PREFETCH  ACCESS:          0  HIT:          0  MISS:          0
cpu0_DTLB WRITEBACK ACCESS:          0  HIT:          0  MISS:          0
cpu0_DTLB TRANSLATION ACCESS:          0  HIT:          0  MISS:          0
cpu0_DTLB PREFETCH  REQUESTED:          0  ISSUED:          0  USEFUL:          0  USELESS:          0
cpu0_DTLB AVERAGE MISS LATENCY: 9.27779 cycles
cpu0_ITLB TOTAL     ACCESS:    1657088  HIT:    1556086  MISS:     101002
cpu0_ITLB LOAD      ACCESS:    1657088  HIT:    1556086  MISS:     101002
cpu0_ITLB RFO       ACCESS:          0  HIT:          0  MISS:          0
cpu0_ITLB PREFETCH  ACCESS:          0  HIT:          0  MISS:          0
cpu0_ITLB WRITEBACK ACCESS:          0  HIT:          0  MISS:          0
cpu0_ITLB TRANSLATION ACCESS:          0  HIT:          0  MISS:          0
cpu0_ITLB PREFETCH  REQUESTED:          0  ISSUED:          0  USEFUL:          0  USELESS:          0
cpu0_ITLB AVERAGE MISS LATENCY: 9.01408 cycles
cpu0_L1I TOTAL     ACCESS:   11740577  HIT:   10958184  MISS:     782393
cpu0_L1I LOAD      ACCESS:    3135143  HIT:    3112445  MISS:      22698
cpu0_L1I RFO       ACCESS:          0  HIT:          0  MISS:          0
cpu0_L1I PREFETCH  ACCESS:    8605434  HIT:    7845739  MISS:     759695
cpu0_L1I WRITEBACK ACCESS:          0  HIT:          0  MISS:          0
cpu0_L1I TRANSLATION ACCESS:          0  HIT:          0  MISS:          0
cpu0_L1I PREFETCH  REQUESTED:   10657209  ISSUED:    8621614  USEFUL:     704848  USELESS:      61633
cpu0_L1I AVERAGE MISS LATENCY: 11.3324 cycles
cpu0_STLB TOTAL     ACCESS:     228911  HIT:     228665  MISS:        246
cpu0_STLB LOAD      ACCESS:     217082  HIT:     216838  MISS:        244
cpu0_STLB RFO       ACCESS:      11829  HIT:      11827  MISS:          2
cpu0_STLB PREFETCH  ACCESS:          0  HIT:          0  MISS:          0
cpu0_STLB WRITEBACK ACCESS:          0  HIT:          0  MISS:          0
cpu0_STLB TRANSLATION ACCESS:          0  HIT:          0  MISS:          0
cpu0_STLB PREFETCH  REQUESTED:     217082  ISSUED:          0  USEFUL:          0  USELESS:          0
cpu0_STLB AVERAGE MISS LATENCY: 129.301 cycles
cpu0_L1D TOTAL     ACCESS:   10651139  HIT:   10615823  MISS:      35316
cpu0_L1D LOAD      ACCESS:    3224458  HIT:    3211241  MISS:      13217
cpu0_L1D RFO       ACCESS:    4219708  HIT:    4215077  MISS:       4631
cpu0_L1D PREFETCH  ACCESS:    3206739  HIT:    3189290  MISS:      17449
cpu0_L1D WRITEBACK ACCESS:          0  HIT:          0  MISS:          0
cpu0_L1D TRANSLATION ACCESS:        234  HIT:        215  MISS:         19
cpu0_L1D PREFETCH  REQUESTED:    3225047  ISSUED:    3209588  USEFUL:      14235  USELESS:       3406
cpu0_L1D AVERAGE MISS LATENCY: 54.6936 cycles
cpu0_L2C TOTAL     ACCESS:     825457  HIT:     821202  MISS:       4255
cpu0_L2C LOAD      ACCESS:      28955  HIT:      27188  MISS:       1767
cpu0_L2C RFO       ACCESS:       4629  HIT:       4461  MISS:        168
cpu0_L2C PREFETCH  ACCESS:     784106  HIT:     781791  MISS:       2315
cpu0_L2C WRITEBACK ACCESS:       7748  HIT:       7748  MISS:          0
cpu0_L2C TRANSLATION ACCESS:         19  HIT:         14  MISS:          5
cpu0_L2C PREFETCH  REQUESTED:          0  ISSUED:          0  USEFUL:          0  USELESS:          0
cpu0_L2C AVERAGE MISS LATENCY: 438.274 cycles
LLC TOTAL     ACCESS:       5932  HIT:       2190  MISS:       3742
LLC LOAD      ACCESS:       1767  HIT:        177  MISS:       1590
LLC RFO       ACCESS:        168  HIT:         27  MISS:        141
LLC PREFETCH  ACCESS:       2315  HIT:        315  MISS:       2000
LLC WRITEBACK ACCESS:       1677  HIT:       1668  MISS:          9
LLC TRANSLATION ACCESS:          5  HIT:          3  MISS:          2
LLC PREFETCH  REQUESTED:          0  ISSUED:          0  USEFUL:          0  USELESS:          0
LLC AVERAGE MISS LATENCY: 474.479 cycles
CPU 0 L1I Entangling prefetcher final stats
IP accesses: d101 344040 43845 / 3135173
IP misses: 30af c2bc0 4383 / 22729
IP hits: 0 0 0 / 0
IP late: 30af c2bc0 4383 / 16216
IP wrong: 3ba6 ee980 6775 / 167533
miss rate: 0.00724968
coverage: 0
coverage_late: 0.71345
accuracy: 0
accuracy_late: 0.0882508
discarded: 0
evicts entangled j table: 0
evicts entangled k table: 7556
max bb size: 15
formats: 0 8217 1 0 0 67 0 
hist_lookups: 140 8077 7147 1776 4134 2080 30 18 13 14 11 6 9 4 3 0 0 52 
hist_lookups_evict: 0 %
hist_lookups_shortlat: 0.221145 %
bb_found_hist: 0 819255 414535 201093 95169 21383 17792 93 8775 57 4384 0 4396 4076 0 8778 0 0 0 0 0 0 0 0 0 0 0 0 0 0 0 0 0 0 0 0 0 0 0 0 0 0 0 0 0 0 0 0 0 0 0 0 0 0 0 0 0 0 0 0 0 0 0 0 
bb_found_summary: 3198561 1599786 1.99937
entangled_found_hist: 0 530951 1218228 13959 4397 0 0 0 
entangled_found_summary: 3026872 1767535 1.71248
bb_ent_found_hist: 0 896105 614613 201873 150107 21243 33514 45 23824 115 21892 0 6064 12082 0 35101 0 0 0 0 0 0 0 0 0 0 0 0 0 0 0 0 0 0 0 0 0 0 0 0 0 0 0 0 0 0 0 0 0 0 0 0 0 0 0 0 0 0 0 0 0 0 0 0 
bb_ent_found_summary: 4805888 2016578 2.38319

DRAM Statistics
 CHANNEL 0
 RQ ROW_BUFFER_HIT:        239  ROW_BUFFER_MISS:       3494
 DBUS AVG_CONGESTED_CYCLE:    3.94827
 WQ ROW_BUFFER_HIT:         46  ROW_BUFFER_MISS:       2384  FULL:          0


CPU 0 Branch Prediction Accuracy: 97.4984% MPKI: 4.21604 Average ROB Occupancy at Mispredict: 250.992
Branch type MPKI
BRANCH_DIRECT_JUMP: 0.001
BRANCH_INDIRECT: 0
BRANCH_CONDITIONAL: 4.0288
BRANCH_DIRECT_CALL: 0.00296
BRANCH_INDIRECT_CALL: 0.00768
BRANCH_RETURN: 0.1756

