
*** ChampSim Multicore Out-of-Order Simulator ***

Warmup Instructions: 25000000
Simulation Instructions: 25000000
Number of CPUs: 1
Off-chip DRAM Size: 4 GiB Channels: 1 Width: 64-bit Data Rate: 3200 MT/s

VirtualMemory physical capacity: 8588881920 num_ppages: 2096895
VirtualMemory page size: 4096 log2_page_size: 12

CPU 0 runs ipc1_public/server_001.champsimtrace.xz
Basic BTB sets: 1024 ways: 8 indirect buffer size: 4096 RAS size: 64
CPU 0 Entangling prefetcher
cpu0_STLB arbitrary stride prefetcher
cpu0_L1D next line prefetcher
WARNING: The extended signature CACHE::prefetch_line(ip, base_addr, pf_addr, fill_this_level, prefetch_metadata) is deprecated.
WARNING: Use CACHE::prefetch_line(pf_addr, fill_this_level, prefetch_metadata) instead.
Heartbeat CPU 0 instructions: 10000000 cycles: 2532082 heartbeat IPC: 3.94932 cumulative IPC: 3.94932 (Simulation time: 0 hr 0 min 26 sec) 
Heartbeat CPU 0 instructions: 20000003 cycles: 5071311 heartbeat IPC: 3.9382 cumulative IPC: 3.94375 (Simulation time: 0 hr 0 min 52 sec) 

Warmup complete CPU 0 instructions: 25000003 cycles: 6340920 (Simulation time: 0 hr 1 min 5 sec) 

Heartbeat CPU 0 instructions: 30000003 cycles: 9469652 heartbeat IPC: 2.27358 cumulative IPC: 1.59809 (Simulation time: 0 hr 1 min 26 sec) 
Heartbeat CPU 0 instructions: 40000001 cycles: 16953273 heartbeat IPC: 1.33625 cumulative IPC: 1.41345 (Simulation time: 0 hr 2 min 11 sec) 
Heartbeat CPU 0 instructions: 50000003 cycles: 23975653 heartbeat IPC: 1.42402 cumulative IPC: 1.41766 (Simulation time: 0 hr 2 min 55 sec) 
Finished CPU 0 instructions: 25000000 cycles: 17634733 cumulative IPC: 1.41766 (Simulation time: 0 hr 2 min 55 sec) 

ChampSim completed all CPUs

Region of Interest Statistics

CPU 0 cumulative IPC: 1.41766 instructions: 25000000 cycles: 17634733
cpu0_DTLB TOTAL     ACCESS:    4762348  HIT:    4607304  MISS:     155044
cpu0_DTLB LOAD      ACCESS:    2990803  HIT:    2846338  MISS:     144465
cpu0_DTLB RFO       ACCESS:    1771545  HIT:    1760966  MISS:      10579
cpu0_DTLB PREFETCH  ACCESS:          0  HIT:          0  MISS:          0
cpu0_DTLB WRITEBACK ACCESS:          0  HIT:          0  MISS:          0
cpu0_DTLB TRANSLATION ACCESS:          0  HIT:          0  MISS:          0
cpu0_DTLB PREFETCH  REQUESTED:          0  ISSUED:          0  USEFUL:          0  USELESS:          0
cpu0_DTLB AVERAGE MISS LATENCY: 14.4865 cycles
cpu0_ITLB TOTAL     ACCESS:    1205550  HIT:    1153709  MISS:      51841
cpu0_ITLB LOAD      ACCESS:    1205550  HIT:    1153709  MISS:      51841
cpu0_ITLB RFO       ACCESS:          0  HIT:          0  MISS:          0
cpu0_ITLB PREFETCH  ACCESS:          0  HIT:          0  MISS:          0
cpu0_ITLB WRITEBACK ACCESS:          0  HIT:          0  MISS:          0
cpu0_ITLB TRANSLATION ACCESS:          0  HIT:          0  MISS:          0
cpu0_ITLB PREFETCH  REQUESTED:          0  ISSUED:          0  USEFUL:          0  USELESS:          0
cpu0_ITLB AVERAGE MISS LATENCY: 10.3452 cycles
cpu0_L1I TOTAL     ACCESS:    9599551  HIT:    9236168  MISS:     363383
cpu0_L1I LOAD      ACCESS:    2586382  HIT:    2558349  MISS:      28033
cpu0_L1I RFO       ACCESS:          0  HIT:          0  MISS:          0
cpu0_L1I PREFETCH  ACCESS:    7013169  HIT:    6677819  MISS:     335350
cpu0_L1I WRITEBACK ACCESS:          0  HIT:          0  MISS:          0
cpu0_L1I TRANSLATION ACCESS:          0  HIT:          0  MISS:          0
cpu0_L1I PREFETCH  REQUESTED:    8299939  ISSUED:    7031653  USEFUL:     317422  USELESS:      30831
cpu0_L1I AVERAGE MISS LATENCY: 33.7547 cycles
cpu0_STLB TOTAL     ACCESS:     206885  HIT:     191427  MISS:      15458
cpu0_STLB LOAD      ACCESS:     196306  HIT:     181820  MISS:      14486
cpu0_STLB RFO       ACCESS:      10579  HIT:       9607  MISS:        972
cpu0_STLB PREFETCH  ACCESS:          0  HIT:          0  MISS:          0
cpu0_STLB WRITEBACK ACCESS:          0  HIT:          0  MISS:          0
cpu0_STLB TRANSLATION ACCESS:          0  HIT:          0  MISS:          0
cpu0_STLB PREFETCH  REQUESTED:        550  ISSUED:          0  USEFUL:          0  USELESS:          0
cpu0_STLB AVERAGE MISS LATENCY: 59.2359 cycles
cpu0_L1D TOTAL     ACCESS:    8564248  HIT:    8286522  MISS:     277726
cpu0_L1D LOAD      ACCESS:    3017100  HIT:    2900325  MISS:     116775
cpu0_L1D RFO       ACCESS:    2603571  HIT:    2557353  MISS:      46218
cpu0_L1D PREFETCH  ACCESS:    2928542  HIT:    2816568  MISS:     111974
cpu0_L1D WRITEBACK ACCESS:          0  HIT:          0  MISS:          0
cpu0_L1D TRANSLATION ACCESS:      15035  HIT:      12276  MISS:       2759
cpu0_L1D PREFETCH  REQUESTED:    3041430  ISSUED:    3029476  USEFUL:     112621  USELESS:      24630
cpu0_L1D AVERAGE MISS LATENCY: 163.138 cycles
cpu0_L2C TOTAL     ACCESS:     749941  HIT:     486495  MISS:     263446
cpu0_L2C LOAD      ACCESS:     107476  HIT:      45970  MISS:      61506
cpu0_L2C RFO       ACCESS:      45136  HIT:       4837  MISS:      40299
cpu0_L2C PREFETCH  ACCESS:     485732  HIT:     325416  MISS:     160316
cpu0_L2C WRITEBACK ACCESS:     108838  HIT:     108491  MISS:        347
cpu0_L2C TRANSLATION ACCESS:       2759  HIT:       1781  MISS:        978
cpu0_L2C PREFETCH  REQUESTED:          0  ISSUED:          0  USEFUL:          0  USELESS:          0
cpu0_L2C AVERAGE MISS LATENCY: 212.991 cycles
LLC TOTAL     ACCESS:     355086  HIT:     219630  MISS:     135456
LLC LOAD      ACCESS:      61505  HIT:      33505  MISS:      28000
LLC RFO       ACCESS:      40299  HIT:       4230  MISS:      36069
LLC PREFETCH  ACCESS:     160314  HIT:      89083  MISS:      71231
LLC WRITEBACK ACCESS:      91990  HIT:      91959  MISS:         31
LLC TRANSLATION ACCESS:        978  HIT:        853  MISS:        125
LLC PREFETCH  REQUESTED:          0  ISSUED:          0  USEFUL:          0  USELESS:          0
LLC AVERAGE MISS LATENCY: 373.445 cycles
CPU 0 L1I Entangling prefetcher final stats
IP accesses: 43dc 10f700 26949 / 2587623
IP misses: 909b 2426c0 342 / 29274
IP hits: 0 0 0 / 0
IP late: 43e4 10f900 233 / 20126
IP wrong: bb9d 2ee740 503 / 70468
miss rate: 0.0113131
coverage: 0
coverage_late: 0.687504
accuracy: 0
accuracy_late: 0.222156
discarded: 0
evicts entangled j table: 0
evicts entangled k table: 8297
max bb size: 63
formats: 0 11414 14 0 0 1067 0 
hist_lookups: 4824 6240 5284 4194 3080 2408 1796 1260 912 622 397 303 214 127 73 0 27 1278 
hist_lookups_evict: 0.0817216 %
hist_lookups_shortlat: 3.86816 %
bb_found_hist: 0 438613 207855 108562 92091 62150 37826 23644 18739 15226 3798 2075 3497 6078 1179 1101 11157 2109 0 330 506 42 430 0 0 7 0 0 0 0 0 0 0 8 0 0 0 0 0 8 0 0 0 0 0 0 0 0 0 0 0 0 0 0 0 0 0 0 0 0 0 0 8 8 
bb_found_summary: 2996185 1037047 2.88915
entangled_found_hist: 0 254775 727624 4730 848 130 16 0 
entangled_found_summary: 1728351 988123 1.74913
bb_ent_found_hist: 0 579274 250189 119198 111959 95675 74857 15706 20944 10864 3271 2719 1154 3049 978 213 14870 4498 0 773 1315 0 721 0 0 20 0 0 0 0 0 0 0 27 0 0 0 0 0 8 0 0 0 0 0 0 0 0 0 0 0 0 0 0 0 0 0 0 0 0 0 0 8 8 
bb_ent_found_summary: 3694798 1312298 2.81552

DRAM Statistics
 CHANNEL 0
 RQ ROW_BUFFER_HIT:      25080  ROW_BUFFER_MISS:     110267
 DBUS AVG_CONGESTED_CYCLE:    3.92614
 WQ ROW_BUFFER_HIT:       9680  ROW_BUFFER_MISS:      64458  FULL:          0


CPU 0 Branch Prediction Accuracy: 96.6016% MPKI: 5.79848 Average ROB Occupancy at Mispredict: 200.776
Branch type MPKI
BRANCH_DIRECT_JUMP: 0.0432
BRANCH_INDIRECT: 0.12976
BRANCH_CONDITIONAL: 4.13252
BRANCH_DIRECT_CALL: 0.06328
BRANCH_INDIRECT_CALL: 0.0208
BRANCH_RETURN: 1.40892

