
*** ChampSim Multicore Out-of-Order Simulator ***

Warmup Instructions: 25000000
Simulation Instructions: 25000000
Number of CPUs: 1
Off-chip DRAM Size: 4 GiB Channels: 1 Width: 64-bit Data Rate: 3200 MT/s

VirtualMemory physical capacity: 8588881920 num_ppages: 2096895
VirtualMemory page size: 4096 log2_page_size: 12

CPU 0 runs ipc1_public/server_001.champsimtrace.xz
Basic BTB sets: 1024 ways: 8 indirect buffer size: 4096 RAS size: 64
CPU 0 Entangling prefetcher
cpu0_L1D next line prefetcher
WARNING: The extended signature CACHE::prefetch_line(ip, base_addr, pf_addr, fill_this_level, prefetch_metadata) is deprecated.
WARNING: Use CACHE::prefetch_line(pf_addr, fill_this_level, prefetch_metadata) instead.
Heartbeat CPU 0 instructions: 10000003 cycles: 2534377 heartbeat IPC: 3.94574 cumulative IPC: 3.94574 (Simulation time: 0 hr 0 min 17 sec) 
Heartbeat CPU 0 instructions: 20000001 cycles: 5081040 heartbeat IPC: 3.92671 cumulative IPC: 3.9362 (Simulation time: 0 hr 0 min 35 sec) 

Warmup complete CPU 0 instructions: 25000004 cycles: 6353519 (Simulation time: 0 hr 0 min 44 sec) 

Heartbeat CPU 0 instructions: 30000003 cycles: 9585042 heartbeat IPC: 2.22025 cumulative IPC: 1.54726 (Simulation time: 0 hr 0 min 58 sec) 
Heartbeat CPU 0 instructions: 40000001 cycles: 17300339 heartbeat IPC: 1.29613 cumulative IPC: 1.37026 (Simulation time: 0 hr 1 min 32 sec) 
Heartbeat CPU 0 instructions: 50000004 cycles: 24494014 heartbeat IPC: 1.39011 cumulative IPC: 1.37813 (Simulation time: 0 hr 2 min 5 sec) 
Finished CPU 0 instructions: 25000000 cycles: 18140495 cumulative IPC: 1.37813 (Simulation time: 0 hr 2 min 5 sec) 

ChampSim completed all CPUs

Region of Interest Statistics

CPU 0 cumulative IPC: 1.37813 instructions: 25000000 cycles: 18140495
cpu0_DTLB TOTAL     ACCESS:    4772103  HIT:    4617138  MISS:     154965
cpu0_DTLB LOAD      ACCESS:    2998959  HIT:    2854567  MISS:     144392
cpu0_DTLB RFO       ACCESS:    1773144  HIT:    1762571  MISS:      10573
cpu0_DTLB PREFETCH  ACCESS:          0  HIT:          0  MISS:          0
cpu0_DTLB WRITEBACK ACCESS:          0  HIT:          0  MISS:          0
cpu0_DTLB TRANSLATION ACCESS:          0  HIT:          0  MISS:          0
cpu0_DTLB PREFETCH  REQUESTED:          0  ISSUED:          0  USEFUL:          0  USELESS:          0
cpu0_DTLB AVERAGE MISS LATENCY: 14.4326 cycles
cpu0_ITLB TOTAL     ACCESS:    1205665  HIT:    1153823  MISS:      51842
cpu0_ITLB LOAD      ACCESS:    1205665  HIT:    1153823  MISS:      51842
cpu0_ITLB RFO       ACCESS:          0  HIT:          0  MISS:          0
cpu0_ITLB PREFETCH  ACCESS:          0  HIT:          0  MISS:          0
cpu0_ITLB WRITEBACK ACCESS:          0  HIT:          0  MISS:          0
cpu0_ITLB TRANSLATION ACCESS:          0  HIT:          0  MISS:          0
cpu0_ITLB PREFETCH  REQUESTED:          0  ISSUED:          0  USEFUL:          0  USELESS:          0
cpu0_ITLB AVERAGE MISS LATENCY: 10.1508 cycles
cpu0_L1I TOTAL     ACCESS:    8911558  HIT:    8551792  MISS:     359766
cpu0_L1I LOAD      ACCESS:    2585553  HIT:    2531822  MISS:      53731
cpu0_L1I RFO       ACCESS:          0  HIT:          0  MISS:          0
cpu0_L1I PREFETCH  ACCESS:    6326005  HIT:    6019970  MISS:     306035
cpu0_L1I WRITEBACK ACCESS:          0  HIT:          0  MISS:          0
cpu0_L1I TRANSLATION ACCESS:          0  HIT:          0  MISS:          0
cpu0_L1I PREFETCH  REQUESTED:    7561941  ISSUED:    6346534  USEFUL:     288405  USELESS:      29353
cpu0_L1I AVERAGE MISS LATENCY: 31.59 cycles
cpu0_STLB TOTAL     ACCESS:     206807  HIT:     191353  MISS:      15454
cpu0_STLB LOAD      ACCESS:     196234  HIT:     181751  MISS:      14483
cpu0_STLB RFO       ACCESS:      10573  HIT:       9602  MISS:        971
cpu0_STLB PREFETCH  ACCESS:          0  HIT:          0  MISS:          0
cpu0_STLB WRITEBACK ACCESS:          0  HIT:          0  MISS:          0
cpu0_STLB TRANSLATION ACCESS:          0  HIT:          0  MISS:          0
cpu0_STLB PREFETCH  REQUESTED:          0  ISSUED:          0  USEFUL:          0  USELESS:          0
cpu0_STLB AVERAGE MISS LATENCY: 58.0386 cycles
cpu0_L1D TOTAL     ACCESS:    8583557  HIT:    8305744  MISS:     277813
cpu0_L1D LOAD      ACCESS:    3026060  HIT:    2909794  MISS:     116266
cpu0_L1D RFO       ACCESS:    2604077  HIT:    2557811  MISS:      46266
cpu0_L1D PREFETCH  ACCESS:    2938352  HIT:    2825832  MISS:     112520
cpu0_L1D WRITEBACK ACCESS:          0  HIT:          0  MISS:          0
cpu0_L1D TRANSLATION ACCESS:      15068  HIT:      12307  MISS:       2761
cpu0_L1D PREFETCH  REQUESTED:    3050038  ISSUED:    3038381  USEFUL:     112871  USELESS:      24555
cpu0_L1D AVERAGE MISS LATENCY: 158.238 cycles
cpu0_L2C TOTAL     ACCESS:     746414  HIT:     485532  MISS:     260882
cpu0_L2C LOAD      ACCESS:     134277  HIT:      57468  MISS:      76809
cpu0_L2C RFO       ACCESS:      45170  HIT:       4949  MISS:      40221
cpu0_L2C PREFETCH  ACCESS:     455363  HIT:     312710  MISS:     142653
cpu0_L2C WRITEBACK ACCESS:     108843  HIT:     108490  MISS:        353
cpu0_L2C TRANSLATION ACCESS:       2761  HIT:       1915  MISS:        846
cpu0_L2C PREFETCH  REQUESTED:          0  ISSUED:          0  USEFUL:          0  USELESS:          0
cpu0_L2C AVERAGE MISS LATENCY: 202.245 cycles
LLC TOTAL     ACCESS:     352579  HIT:     215872  MISS:     136707
LLC LOAD      ACCESS:      76805  HIT:      42613  MISS:      34192
LLC RFO       ACCESS:      40221  HIT:       4026  MISS:      36195
LLC PREFETCH  ACCESS:     142652  HIT:      76476  MISS:      66176
LLC WRITEBACK ACCESS:      92055  HIT:      92023  MISS:         32
LLC TRANSLATION ACCESS:        846  HIT:        734  MISS:        112
LLC PREFETCH  REQUESTED:          0  ISSUED:          0  USEFUL:          0  USELESS:          0
LLC AVERAGE MISS LATENCY: 345.923 cycles
CPU 0 L1I Entangling prefetcher final stats
IP accesses: 1f9c 7e700 26949 / 2588009
IP misses: c138 304e00 362 / 56187
IP hits: 0 0 0 / 0
IP late: 2368 8da00 249 / 24065
IP wrong: ec0 3b000 608 / 63863
miss rate: 0.0217105
coverage: 0
coverage_late: 0.428302
accuracy: 0
accuracy_late: 0.27369
discarded: 0
evicts entangled j table: 0
evicts entangled k table: 5418
max bb size: 111
formats: 586 1905 7377 1432 887 2407 0 
hist_lookups: 5282 6302 5280 3712 2936 2250 1636 1147 802 499 337 238 158 93 55 0 24 1160 
hist_lookups_evict: 0.0752092 %
hist_lookups_shortlat: 3.63511 %
bb_found_hist: 0 371876 175527 79147 82432 49228 36675 14552 25050 13517 3948 1632 2259 5918 5380 288 2772 2621 18 328 419 3232 410 0 0 6 7 3 0 0 0 0 0 8 0 0 0 0 0 0 0 0 0 0 0 0 0 6 0 0 0 0 0 0 0 0 0 0 0 0 0 0 0 0 
bb_found_summary: 2603016 877259 2.96721
entangled_found_hist: 0 248158 245700 280045 9763 1733 599 0 
entangled_found_summary: 1631004 785998 2.07507
bb_ent_found_hist: 0 522556 229727 111448 95052 91456 57696 11943 8520 9766 4010 3382 1211 7009 358 502 7047 5084 256 683 3644 9433 689 0 0 24 11 5 0 0 0 0 0 25 0 0 0 0 0 0 0 0 0 0 0 0 0 6 0 0 0 0 0 0 0 0 0 0 0 0 0 0 0 0 
bb_ent_found_summary: 3440190 1181543 2.91161
SET:1
TAG:26c FORMAT:2 ENTANGLED_ADDRESSES:eccd4a5 CONF:3 edcba33 CONF:3 0 CONF:0 0 CONF:0 0 CONF:0 0 CONF:0 BB SIZE:2
TAG:26e FORMAT:5 ENTANGLED_ADDRESSES:244 CONF:3 b8 CONF:3 c5 CONF:2 0 CONF:0 0 CONF:0 0 CONF:0 BB SIZE:3
TAG:27a FORMAT:3 ENTANGLED_ADDRESSES:25849 CONF:3 0 CONF:0 0 CONF:0 0 CONF:0 0 CONF:0 0 CONF:0 BB SIZE:1
TAG:ac4 FORMAT:2 ENTANGLED_ADDRESSES:edbd3d1 CONF:3 edc91cc CONF:3 0 CONF:0 0 CONF:0 0 CONF:0 0 CONF:0 BB SIZE:0
TAG:7c8 FORMAT:2 ENTANGLED_ADDRESSES:edc1c12 CONF:3 0 CONF:0 0 CONF:0 0 CONF:0 0 CONF:0 0 CONF:0 BB SIZE:2
TAG:26f FORMAT:3 ENTANGLED_ADDRESSES:14010 CONF:2 0 CONF:0 0 CONF:0 0 CONF:0 0 CONF:0 0 CONF:0 BB SIZE:0
TAG:afa FORMAT:3 ENTANGLED_ADDRESSES:3891b CONF:3 3c661 CONF:3 0 CONF:0 0 CONF:0 0 CONF:0 0 CONF:0 BB SIZE:0
TAG:a89 FORMAT:6 ENTANGLED_ADDRESSES:b0 CONF:3 b6 CONF:3 0 CONF:0 0 CONF:0 0 CONF:0 0 CONF:0 BB SIZE:0
TAG:3d7 FORMAT:3 ENTANGLED_ADDRESSES:236a CONF:3 b3cb CONF:3 0 CONF:0 0 CONF:0 0 CONF:0 0 CONF:0 BB SIZE:1
TAG:3fe FORMAT:2 ENTANGLED_ADDRESSES:edf85e9 CONF:3 edf8900 CONF:3 0 CONF:0 0 CONF:0 0 CONF:0 0 CONF:0 BB SIZE:1
TAG:2b7 FORMAT:6 ENTANGLED_ADDRESSES:40 CONF:3 6f1 CONF:0 6e2 CONF:0 0 CONF:0 0 CONF:0 0 CONF:0 BB SIZE:1
TAG:a8a FORMAT:2 ENTANGLED_ADDRESSES:edbe1fc CONF:1 edba6cc CONF:3 0 CONF:0 0 CONF:0 0 CONF:0 0 CONF:0 BB SIZE:2
TAG:282 FORMAT:3 ENTANGLED_ADDRESSES:14ced CONF:3 14d0c CONF:3 14d11 CONF:3 0 CONF:0 0 CONF:0 0 CONF:0 BB SIZE:c
TAG:287 FORMAT:3 ENTANGLED_ADDRESSES:4044 CONF:3 d402 CONF:3 0 CONF:0 0 CONF:0 0 CONF:0 0 CONF:0 BB SIZE:1
TAG:101 FORMAT:3 ENTANGLED_ADDRESSES:18f66 CONF:3 a92b CONF:3 18f37 CONF:3 0 CONF:0 0 CONF:0 0 CONF:0 BB SIZE:2
TAG:6f2 FORMAT:2 ENTANGLED_ADDRESSES:edc909a CONF:3 edc9093 CONF:3 0 CONF:0 0 CONF:0 0 CONF:0 0 CONF:0 BB SIZE:2
SET:2
TAG:38 FORMAT:3 ENTANGLED_ADDRESSES:14842 CONF:3 ac8d CONF:3 f4bf CONF:3 0 CONF:0 0 CONF:0 0 CONF:0 BB SIZE:2
TAG:329 FORMAT:3 ENTANGLED_ADDRESSES:15c4b CONF:3 fc34 CONF:2 15c4a CONF:3 0 CONF:0 0 CONF:0 0 CONF:0 BB SIZE:0
TAG:3d9 FORMAT:2 ENTANGLED_ADDRESSES:edcba33 CONF:3 ecc270f CONF:3 0 CONF:0 0 CONF:0 0 CONF:0 0 CONF:0 BB SIZE:1
TAG:298 FORMAT:3 ENTANGLED_ADDRESSES:a111 CONF:3 d059 CONF:2 4671 CONF:2 0 CONF:0 0 CONF:0 0 CONF:0 BB SIZE:1
TAG:2f1 FORMAT:3 ENTANGLED_ADDRESSES:a956 CONF:2 769e CONF:2 8109 CONF:3 0 CONF:0 0 CONF:0 0 CONF:0 BB SIZE:1
TAG:3fe FORMAT:2 ENTANGLED_ADDRESSES:edf8900 CONF:3 0 CONF:0 0 CONF:0 0 CONF:0 0 CONF:0 0 CONF:0 BB SIZE:2
TAG:2f4 FORMAT:3 ENTANGLED_ADDRESSES:d2b7 CONF:1 d2b4 CONF:1 0 CONF:0 0 CONF:0 0 CONF:0 0 CONF:0 BB SIZE:1
TAG:7bc FORMAT:5 ENTANGLED_ADDRESSES:1ad CONF:1 0 CONF:0 0 CONF:0 0 CONF:0 0 CONF:0 0 CONF:0 BB SIZE:0
TAG:7ff FORMAT:2 ENTANGLED_ADDRESSES:edc20a7 CONF:2 0 CONF:0 0 CONF:0 0 CONF:0 0 CONF:0 0 CONF:0 BB SIZE:2
TAG:1 FORMAT:1 ENTANGLED_ADDRESSES:3fffe8e49c0 CONF:3 0 CONF:0 0 CONF:0 0 CONF:0 0 CONF:0 0 CONF:0 BB SIZE:1
TAG:3d7 FORMAT:6 ENTANGLED_ADDRESSES:53 CONF:3 0 CONF:0 0 CONF:0 0 CONF:0 0 CONF:0 0 CONF:0 BB SIZE:0
TAG:33b FORMAT:3 ENTANGLED_ADDRESSES:adc5 CONF:2 0 CONF:0 0 CONF:0 0 CONF:0 0 CONF:0 0 CONF:0 BB SIZE:3
TAG:251 FORMAT:1 ENTANGLED_ADDRESSES:0 CONF:0 0 CONF:0 0 CONF:0 0 CONF:0 0 CONF:0 0 CONF:0 BB SIZE:1
TAG:26a FORMAT:1 ENTANGLED_ADDRESSES:0 CONF:0 0 CONF:0 0 CONF:0 0 CONF:0 0 CONF:0 0 CONF:0 BB SIZE:1
TAG:107 FORMAT:3 ENTANGLED_ADDRESSES:f0c CONF:3 f0f CONF:3 0 CONF:0 0 CONF:0 0 CONF:0 0 CONF:0 BB SIZE:1
TAG:a7c FORMAT:3 ENTANGLED_ADDRESSES:817c CONF:3 817f CONF:0 8180 CONF:2 0 CONF:0 0 CONF:0 0 CONF:0 BB SIZE:1
SET:3
TAG:39f FORMAT:3 ENTANGLED_ADDRESSES:8978 CONF:3 1f9a CONF:2 153ea CONF:2 0 CONF:0 0 CONF:0 0 CONF:0 BB SIZE:b
TAG:3d9 FORMAT:3 ENTANGLED_ADDRESSES:f40c CONF:0 a1f4 CONF:3 1f9b CONF:2 0 CONF:0 0 CONF:0 0 CONF:0 BB SIZE:13
TAG:a89 FORMAT:2 ENTANGLED_ADDRESSES:edba6bc CONF:3 edc80ae CONF:3 0 CONF:0 0 CONF:0 0 CONF:0 0 CONF:0 BB SIZE:2
TAG:a1e FORMAT:2 ENTANGLED_ADDRESSES:ecc145e CONF:3 de6e CONF:0 edcde75 CONF:2 0 CONF:0 0 CONF:0 0 CONF:0 BB SIZE:1
TAG:86 FORMAT:3 ENTANGLED_ADDRESSES:175eb CONF:2 10217 CONF:2 10225 CONF:1 0 CONF:0 0 CONF:0 0 CONF:0 BB SIZE:7
TAG:27a FORMAT:3 ENTANGLED_ADDRESSES:2526c CONF:3 2527c CONF:3 30b2 CONF:3 0 CONF:0 0 CONF:0 0 CONF:0 BB SIZE:1
TAG:3ef FORMAT:3 ENTANGLED_ADDRESSES:33d2 CONF:3 0 CONF:0 0 CONF:0 0 CONF:0 0 CONF:0 0 CONF:0 BB SIZE:0
TAG:3c8 FORMAT:3 ENTANGLED_ADDRESSES:aba7 CONF:3 d102 CONF:3 0 CONF:0 0 CONF:0 0 CONF:0 0 CONF:0 BB SIZE:3
TAG:57 FORMAT:3 ENTANGLED_ADDRESSES:8e05 CONF:2 15bc0 CONF:2 0 CONF:0 0 CONF:0 0 CONF:0 0 CONF:0 BB SIZE:1
TAG:105 FORMAT:3 ENTANGLED_ADDRESSES:bef CONF:3 712 CONF:3 c4c CONF:3 0 CONF:0 0 CONF:0 0 CONF:0 BB SIZE:0
TAG:251 FORMAT:1 ENTANGLED_ADDRESSES:3fffedfc759 CONF:3 27706 CONF:0 0 CONF:0 0 CONF:0 0 CONF:0 0 CONF:0 BB SIZE:2
TAG:66 FORMAT:3 ENTANGLED_ADDRESSES:61f8 CONF:3 0 CONF:0 0 CONF:0 0 CONF:0 0 CONF:0 0 CONF:0 BB SIZE:1
TAG:55 FORMAT:3 ENTANGLED_ADDRESSES:10225 CONF:2 e556 CONF:1 0 CONF:0 0 CONF:0 0 CONF:0 0 CONF:0 BB SIZE:b
TAG:322 FORMAT:2 ENTANGLED_ADDRESSES:edcba2d CONF:3 0 CONF:0 0 CONF:0 0 CONF:0 0 CONF:0 0 CONF:0 BB SIZE:1
TAG:25d FORMAT:1 ENTANGLED_ADDRESSES:0 CONF:0 0 CONF:0 0 CONF:0 0 CONF:0 0 CONF:0 0 CONF:0 BB SIZE:1
TAG:b7 FORMAT:4 ENTANGLED_ADDRESSES:a4f CONF:0 695 CONF:3 0 CONF:0 0 CONF:0 0 CONF:0 0 CONF:0 BB SIZE:1
SET:4
TAG:33f FORMAT:2 ENTANGLED_ADDRESSES:edc523b CONF:3 edc5238 CONF:3 0 CONF:0 0 CONF:0 0 CONF:0 0 CONF:0 BB SIZE:4
TAG:3dc FORMAT:3 ENTANGLED_ADDRESSES:4564 CONF:3 0 CONF:0 0 CONF:0 0 CONF:0 0 CONF:0 0 CONF:0 BB SIZE:1
TAG:34d FORMAT:3 ENTANGLED_ADDRESSES:7ff1 CONF:0 7800 CONF:3 0 CONF:0 0 CONF:0 0 CONF:0 0 CONF:0 BB SIZE:3
TAG:2f1 FORMAT:2 ENTANGLED_ADDRESSES:edcba33 CONF:2 edf891b CONF:3 0 CONF:0 0 CONF:0 0 CONF:0 0 CONF:0 BB SIZE:0
TAG:d91 FORMAT:3 ENTANGLED_ADDRESSES:3c6bb CONF:3 bbdc CONF:2 3c6c0 CONF:3 3c813 CONF:0 0 CONF:0 0 CONF:0 BB SIZE:0
TAG:2c4 FORMAT:3 ENTANGLED_ADDRESSES:7ed8 CONF:0 7859 CONF:3 4837 CONF:2 0 CONF:0 0 CONF:0 0 CONF:0 BB SIZE:1
TAG:39b FORMAT:3 ENTANGLED_ADDRESSES:4b3b CONF:3 f7d6 CONF:2 46e8 CONF:3 0 CONF:0 0 CONF:0 0 CONF:0 BB SIZE:3
TAG:35e FORMAT:3 ENTANGLED_ADDRESSES:a763 CONF:3 9bb7 CONF:3 113ba CONF:2 0 CONF:0 0 CONF:0 0 CONF:0 BB SIZE:2
TAG:7b8 FORMAT:4 ENTANGLED_ADDRESSES:154d CONF:2 145b CONF:2 1516 CONF:3 0 CONF:0 0 CONF:0 0 CONF:0 BB SIZE:1
TAG:316 FORMAT:3 ENTANGLED_ADDRESSES:16a32 CONF:3 4c3b CONF:3 0 CONF:0 0 CONF:0 0 CONF:0 0 CONF:0 BB SIZE:3
TAG:2da FORMAT:3 ENTANGLED_ADDRESSES:edb CONF:1 5d26 CONF:0 0 CONF:0 0 CONF:0 0 CONF:0 0 CONF:0 BB SIZE:6
TAG:2de FORMAT:3 ENTANGLED_ADDRESSES:3b14 CONF:1 143 CONF:3 5b4 CONF:3 0 CONF:0 0 CONF:0 0 CONF:0 BB SIZE:0
TAG:6f2 FORMAT:2 ENTANGLED_ADDRESSES:edc20ca CONF:2 edbc80f CONF:3 0 CONF:0 0 CONF:0 0 CONF:0 0 CONF:0 BB SIZE:1
TAG:ac4 FORMAT:3 ENTANGLED_ADDRESSES:91cc CONF:2 da6a CONF:2 ac82 CONF:3 0 CONF:0 0 CONF:0 0 CONF:0 BB SIZE:0
TAG:955 FORMAT:2 ENTANGLED_ADDRESSES:edb5ccf CONF:3 edcbbff CONF:3 bbfd CONF:0 0 CONF:0 0 CONF:0 0 CONF:0 BB SIZE:0
TAG:f4 FORMAT:3 ENTANGLED_ADDRESSES:c74e CONF:2 c749 CONF:3 c73c CONF:2 0 CONF:0 0 CONF:0 0 CONF:0 BB SIZE:5
SET:5
TAG:389 FORMAT:3 ENTANGLED_ADDRESSES:f7d4 CONF:3 23f6a CONF:3 25549 CONF:3 0 CONF:0 0 CONF:0 0 CONF:0 BB SIZE:1
TAG:afc FORMAT:5 ENTANGLED_ADDRESSES:1cc CONF:3 1c8 CONF:3 1c5 CONF:2 0 CONF:0 0 CONF:0 0 CONF:0 BB SIZE:1
TAG:3c4 FORMAT:1 ENTANGLED_ADDRESSES:0 CONF:0 0 CONF:0 0 CONF:0 0 CONF:0 0 CONF:0 0 CONF:0 BB SIZE:2
TAG:7f3 FORMAT:3 ENTANGLED_ADDRESSES:8878 CONF:3 88b9 CONF:3 8877 CONF:3 0 CONF:0 0 CONF:0 0 CONF:0 BB SIZE:1
TAG:225 FORMAT:3 ENTANGLED_ADDRESSES:5c24 CONF:3 5c1d CONF:2 5c14 CONF:3 0 CONF:0 0 CONF:0 0 CONF:0 BB SIZE:2
TAG:32c FORMAT:3 ENTANGLED_ADDRESSES:1690c CONF:3 16910 CONF:3 53fd CONF:3 0 CONF:0 0 CONF:0 0 CONF:0 BB SIZE:c
TAG:7ca FORMAT:2 ENTANGLED_ADDRESSES:edd04af CONF:2 35ca9 CONF:0 edb7d84 CONF:3 0 CONF:0 0 CONF:0 0 CONF:0 BB SIZE:2
TAG:349 FORMAT:3 ENTANGLED_ADDRESSES:131a0 CONF:3 8e05 CONF:3 15bc0 CONF:3 0 CONF:0 0 CONF:0 0 CONF:0 BB SIZE:f
TAG:94f FORMAT:4 ENTANGLED_ADDRESSES:b31 CONF:3 b34 CONF:3 b33 CONF:3 cde CONF:3 0 CONF:0 0 CONF:0 BB SIZE:4
TAG:3f5 FORMAT:3 ENTANGLED_ADDRESSES:6582 CONF:3 0 CONF:0 0 CONF:0 0 CONF:0 0 CONF:0 0 CONF:0 BB SIZE:6
TAG:d91 FORMAT:3 ENTANGLED_ADDRESSES:3c6bb CONF:3 bbf7 CONF:3 0 CONF:0 0 CONF:0 0 CONF:0 0 CONF:0 BB SIZE:0
TAG:7f2 FORMAT:3 ENTANGLED_ADDRESSES:2776a CONF:3 79b9 CONF:2 79de CONF:3 0 CONF:0 0 CONF:0 0 CONF:0 BB SIZE:1
TAG:247 FORMAT:3 ENTANGLED_ADDRESSES:2041 CONF:2 2044 CONF:3 2049 CONF:3 0 CONF:0 0 CONF:0 0 CONF:0 BB SIZE:9
TAG:2b2 FORMAT:6 ENTANGLED_ADDRESSES:e5 CONF:3 e3 CONF:3 0 CONF:0 0 CONF:0 0 CONF:0 0 CONF:0 BB SIZE:5
TAG:2e9 FORMAT:3 ENTANGLED_ADDRESSES:c0a CONF:3 c005 CONF:3 165 CONF:3 0 CONF:0 0 CONF:0 0 CONF:0 BB SIZE:1
TAG:2fc FORMAT:3 ENTANGLED_ADDRESSES:42a7 CONF:1 6a83 CONF:1 0 CONF:0 0 CONF:0 0 CONF:0 0 CONF:0 BB SIZE:1
SET:6
TAG:27a FORMAT:3 ENTANGLED_ADDRESSES:3096 CONF:3 45c4 CONF:3 30ae CONF:3 0 CONF:0 0 CONF:0 0 CONF:0 BB SIZE:0
TAG:3fe FORMAT:6 ENTANGLED_ADDRESSES:7d CONF:2 0 CONF:0 0 CONF:0 0 CONF:0 0 CONF:0 0 CONF:0 BB SIZE:6
TAG:71 FORMAT:6 ENTANGLED_ADDRESSES:61 CONF:2 73 CONF:2 0 CONF:0 0 CONF:0 0 CONF:0 0 CONF:0 BB SIZE:0
TAG:dd FORMAT:3 ENTANGLED_ADDRESSES:11542 CONF:1 1154d CONF:0 0 CONF:0 0 CONF:0 0 CONF:0 0 CONF:0 BB SIZE:3
TAG:2f1 FORMAT:3 ENTANGLED_ADDRESSES:4f04 CONF:1 87cb CONF:0 1489 CONF:0 0 CONF:0 0 CONF:0 0 CONF:0 BB SIZE:1
TAG:26c FORMAT:3 ENTANGLED_ADDRESSES:4f8a CONF:3 1f9e CONF:3 0 CONF:0 0 CONF:0 0 CONF:0 0 CONF:0 BB SIZE:1
TAG:d32 FORMAT:2 ENTANGLED_ADDRESSES:e8e49df CONF:3 edf842e CONF:3 0 CONF:0 0 CONF:0 0 CONF:0 0 CONF:0 BB SIZE:0
TAG:26e FORMAT:3 ENTANGLED_ADDRESSES:7c28 CONF:2 0 CONF:0 0 CONF:0 0 CONF:0 0 CONF:0 0 CONF:0 BB SIZE:0
TAG:327 FORMAT:3 ENTANGLED_ADDRESSES:aa64 CONF:3 0 CONF:0 0 CONF:0 0 CONF:0 0 CONF:0 0 CONF:0 BB SIZE:15
TAG:329 FORMAT:1 ENTANGLED_ADDRESSES:0 CONF:0 0 CONF:0 0 CONF:0 0 CONF:0 0 CONF:0 0 CONF:0 BB SIZE:1
TAG:2f4 FORMAT:3 ENTANGLED_ADDRESSES:d2ac CONF:3 cb50 CONF:2 cb8b CONF:3 0 CONF:0 0 CONF:0 0 CONF:0 BB SIZE:5
TAG:38 FORMAT:3 ENTANGLED_ADDRESSES:a66c CONF:3 ac83 CONF:3 15c23 CONF:3 0 CONF:0 0 CONF:0 0 CONF:0 BB SIZE:5
TAG:3eb FORMAT:4 ENTANGLED_ADDRESSES:ca4 CONF:2 0 CONF:0 0 CONF:0 0 CONF:0 0 CONF:0 0 CONF:0 BB SIZE:6
TAG:226 FORMAT:3 ENTANGLED_ADDRESSES:6b24 CONF:3 4411 CONF:3 6afe CONF:2 0 CONF:0 0 CONF:0 0 CONF:0 BB SIZE:1
TAG:66 FORMAT:3 ENTANGLED_ADDRESSES:32fe CONF:3 73b7 CONF:3 0 CONF:0 0 CONF:0 0 CONF:0 0 CONF:0 BB SIZE:8
TAG:e0 FORMAT:3 ENTANGLED_ADDRESSES:6afe CONF:3 6b26 CONF:2 6b20 CONF:3 0 CONF:0 0 CONF:0 0 CONF:0 BB SIZE:a
SET:7
TAG:2f1 FORMAT:3 ENTANGLED_ADDRESSES:3bbd CONF:2 2369 CONF:1 a741 CONF:1 0 CONF:0 0 CONF:0 0 CONF:0 BB SIZE:2
TAG:334 FORMAT:3 ENTANGLED_ADDRESSES:95c9 CONF:1 3b49 CONF:3 0 CONF:0 0 CONF:0 0 CONF:0 0 CONF:0 BB SIZE:8
TAG:afc FORMAT:3 ENTANGLED_ADDRESSES:e105 CONF:3 e106 CONF:3 0 CONF:0 0 CONF:0 0 CONF:0 0 CONF:0 BB SIZE:1
TAG:39f FORMAT:6 ENTANGLED_ADDRESSES:81 CONF:3 0 CONF:0 0 CONF:0 0 CONF:0 0 CONF:0 0 CONF:0 BB SIZE:e
TAG:3c4 FORMAT:1 ENTANGLED_ADDRESSES:0 CONF:0 0 CONF:0 0 CONF:0 0 CONF:0 0 CONF:0 0 CONF:0 BB SIZE:6
TAG:26f FORMAT:3 ENTANGLED_ADDRESSES:14010 CONF:2 4485 CONF:2 0 CONF:0 0 CONF:0 0 CONF:0 0 CONF:0 BB SIZE:1
TAG:a1e FORMAT:2 ENTANGLED_ADDRESSES:edbdef7 CONF:3 edc2717 CONF:3 0 CONF:0 0 CONF:0 0 CONF:0 0 CONF:0 BB SIZE:0
TAG:be8 FORMAT:2 ENTANGLED_ADDRESSES:edbc916 CONF:3 edfc789 CONF:3 0 CONF:0 0 CONF:0 0 CONF:0 0 CONF:0 BB SIZE:2
TAG:106 FORMAT:6 ENTANGLED_ADDRESSES:82 CONF:2 0 CONF:0 0 CONF:0 0 CONF:0 0 CONF:0 0 CONF:0 BB SIZE:5
TAG:368 FORMAT:2 ENTANGLED_ADDRESSES:edff40c CONF:3 e8e4979 CONF:3 0 CONF:0 0 CONF:0 0 CONF:0 0 CONF:0 BB SIZE:b
TAG:3d7 FORMAT:6 ENTANGLED_ADDRESSES:60 CONF:2 62 CONF:0 0 CONF:0 0 CONF:0 0 CONF:0 0 CONF:0 BB SIZE:0
TAG:a2 FORMAT:3 ENTANGLED_ADDRESSES:3752 CONF:2 16274 CONF:3 3758 CONF:3 0 CONF:0 0 CONF:0 0 CONF:0 BB SIZE:1
TAG:255 FORMAT:3 ENTANGLED_ADDRESSES:20f7 CONF:2 101e7 CONF:3 2103 CONF:0 0 CONF:0 0 CONF:0 0 CONF:0 BB SIZE:2
TAG:d2d FORMAT:1 ENTANGLED_ADDRESSES:3fffc00002020a1 CONF:3 0 CONF:0 0 CONF:0 0 CONF:0 0 CONF:0 0 CONF:0 BB SIZE:2
TAG:2b6 FORMAT:6 ENTANGLED_ADDRESSES:21 CONF:1 23 CONF:3 46 CONF:0 3b CONF:0 0 CONF:0 0 CONF:0 BB SIZE:0
TAG:26e FORMAT:3 ENTANGLED_ADDRESSES:3a43 CONF:2 38c5 CONF:3 228c6 CONF:3 0 CONF:0 0 CONF:0 0 CONF:0 BB SIZE:0
SET:8
TAG:7bc FORMAT:5 ENTANGLED_ADDRESSES:248 CONF:3 16e CONF:1 1a9 CONF:2 0 CONF:0 0 CONF:0 0 CONF:0 BB SIZE:2
TAG:2c4 FORMAT:4 ENTANGLED_ADDRESSES:1779 CONF:2 1858 CONF:0 1fee CONF:0 1fea CONF:0 0 CONF:0 0 CONF:0 BB SIZE:0
TAG:b0 FORMAT:6 ENTANGLED_ADDRESSES:f CONF:3 0 CONF:0 0 CONF:0 0 CONF:0 0 CONF:0 0 CONF:0 BB SIZE:1
TAG:be8 FORMAT:2 ENTANGLED_ADDRESSES:edbdef7 CONF:2 0 CONF:0 0 CONF:0 0 CONF:0 0 CONF:0 0 CONF:0 BB SIZE:2
TAG:225 FORMAT:3 ENTANGLED_ADDRESSES:5a26 CONF:3 0 CONF:0 0 CONF:0 0 CONF:0 0 CONF:0 0 CONF:0 BB SIZE:1
TAG:2b6 FORMAT:6 ENTANGLED_ADDRESSES:23 CONF:0 21 CONF:2 31 CONF:3 c7 CONF:3 0 CONF:0 0 CONF:0 BB SIZE:4
TAG:a7b FORMAT:3 ENTANGLED_ADDRESSES:6cdb CONF:3 0 CONF:0 0 CONF:0 0 CONF:0 0 CONF:0 0 CONF:0 BB SIZE:1
TAG:2aa FORMAT:6 ENTANGLED_ADDRESSES:99 CONF:3 0 CONF:0 0 CONF:0 0 CONF:0 0 CONF:0 0 CONF:0 BB SIZE:4
TAG:3fe FORMAT:2 ENTANGLED_ADDRESSES:eccb779 CONF:3 edce107 CONF:2 1533 CONF:0 eccb77d CONF:0 0 CONF:0 0 CONF:0 BB SIZE:b
TAG:36 FORMAT:6 ENTANGLED_ADDRESSES:86 CONF:2 0 CONF:0 0 CONF:0 0 CONF:0 0 CONF:0 0 CONF:0 BB SIZE:2
TAG:27c FORMAT:3 ENTANGLED_ADDRESSES:6b0f CONF:3 6f7d CONF:3 0 CONF:0 0 CONF:0 0 CONF:0 0 CONF:0 BB SIZE:1
TAG:2f7 FORMAT:3 ENTANGLED_ADDRESSES:141bd CONF:3 1f9d CONF:2 2ee3 CONF:2 0 CONF:0 0 CONF:0 0 CONF:0 BB SIZE:1
TAG:2ad FORMAT:6 ENTANGLED_ADDRESSES:99 CONF:3 0 CONF:0 0 CONF:0 0 CONF:0 0 CONF:0 0 CONF:0 BB SIZE:1
TAG:106 FORMAT:6 ENTANGLED_ADDRESSES:82 CONF:3 0 CONF:0 0 CONF:0 0 CONF:0 0 CONF:0 0 CONF:0 BB SIZE:6
TAG:a7c FORMAT:6 ENTANGLED_ADDRESSES:c5 CONF:2 0 CONF:0 0 CONF:0 0 CONF:0 0 CONF:0 0 CONF:0 BB SIZE:0
TAG:a1e FORMAT:2 ENTANGLED_ADDRESSES:edc1172 CONF:2 edbc8f1 CONF:2 0 CONF:0 0 CONF:0 0 CONF:0 0 CONF:0 BB SIZE:2
SET:9
TAG:7f3 FORMAT:3 ENTANGLED_ADDRESSES:46e2 CONF:2 4599 CONF:3 459b CONF:3 0 CONF:0 0 CONF:0 0 CONF:0 BB SIZE:2
TAG:2df FORMAT:6 ENTANGLED_ADDRESSES:11 CONF:3 0 CONF:0 0 CONF:0 0 CONF:0 0 CONF:0 0 CONF:0 BB SIZE:5
TAG:3d9 FORMAT:3 ENTANGLED_ADDRESSES:1f9b CONF:2 0 CONF:0 0 CONF:0 0 CONF:0 0 CONF:0 0 CONF:0 BB SIZE:a
TAG:a2 FORMAT:3 ENTANGLED_ADDRESSES:e503 CONF:3 0 CONF:0 0 CONF:0 0 CONF:0 0 CONF:0 0 CONF:0 BB SIZE:0
TAG:37e FORMAT:1 ENTANGLED_ADDRESSES:0 CONF:0 0 CONF:0 0 CONF:0 0 CONF:0 0 CONF:0 0 CONF:0 BB SIZE:1
TAG:3da FORMAT:3 ENTANGLED_ADDRESSES:9646 CONF:3 0 CONF:0 0 CONF:0 0 CONF:0 0 CONF:0 0 CONF:0 BB SIZE:8
TAG:3f5 FORMAT:3 ENTANGLED_ADDRESSES:b3f2 CONF:3 ce5 CONF:3 0 CONF:0 0 CONF:0 0 CONF:0 0 CONF:0 BB SIZE:2
TAG:78d FORMAT:5 ENTANGLED_ADDRESSES:15c CONF:1 c2 CONF:2 dd CONF:3 c7 CONF:3 d9 CONF:3 0 CONF:0 BB SIZE:5
TAG:287 FORMAT:3 ENTANGLED_ADDRESSES:d69c CONF:3 d3c4 CONF:3 d3b6 CONF:2 0 CONF:0 0 CONF:0 0 CONF:0 BB SIZE:4
TAG:2ad FORMAT:6 ENTANGLED_ADDRESSES:d4 CONF:2 d8 CONF:2 dc CONF:3 0 CONF:0 0 CONF:0 0 CONF:0 BB SIZE:1
TAG:2aa FORMAT:3 ENTANGLED_ADDRESSES:4aa6 CONF:2 30ac CONF:3 6a9 CONF:0 0 CONF:0 0 CONF:0 0 CONF:0 BB SIZE:3
TAG:d2e FORMAT:1 ENTANGLED_ADDRESSES:3fffc00002020a1 CONF:3 0 CONF:0 0 CONF:0 0 CONF:0 0 CONF:0 0 CONF:0 BB SIZE:0
TAG:39b FORMAT:3 ENTANGLED_ADDRESSES:20b3 CONF:3 588f CONF:0 24a9 CONF:2 0 CONF:0 0 CONF:0 0 CONF:0 BB SIZE:0
TAG:2b6 FORMAT:3 ENTANGLED_ADDRESSES:4afe CONF:3 4bcf CONF:3 f94e CONF:3 0 CONF:0 0 CONF:0 0 CONF:0 BB SIZE:1
TAG:afa FORMAT:3 ENTANGLED_ADDRESSES:b62e CONF:2 377e CONF:3 b631 CONF:3 0 CONF:0 0 CONF:0 0 CONF:0 BB SIZE:1
TAG:3c4 FORMAT:3 ENTANGLED_ADDRESSES:4623 CONF:2 4627 CONF:3 ecab CONF:3 0 CONF:0 0 CONF:0 0 CONF:0 BB SIZE:3
SET:10
TAG:39b FORMAT:3 ENTANGLED_ADDRESSES:24a9 CONF:3 2133 CONF:2 276ff CONF:2 0 CONF:0 0 CONF:0 0 CONF:0 BB SIZE:1
TAG:6f2 FORMAT:2 ENTANGLED_ADDRESSES:edcabec CONF:3 edbdf18 CONF:3 3e538 CONF:0 0 CONF:0 0 CONF:0 0 CONF:0 BB SIZE:0
TAG:2b6 FORMAT:6 ENTANGLED_ADDRESSES:c8 CONF:3 c3 CONF:3 0 CONF:0 0 CONF:0 0 CONF:0 0 CONF:0 BB SIZE:2
TAG:db FORMAT:3 ENTANGLED_ADDRESSES:897a CONF:3 0 CONF:0 0 CONF:0 0 CONF:0 0 CONF:0 0 CONF:0 BB SIZE:0
TAG:2ab FORMAT:3 ENTANGLED_ADDRESSES:cb39 CONF:2 cafb CONF:3 cb2b CONF:3 0 CONF:0 0 CONF:0 0 CONF:0 BB SIZE:0
TAG:3cb FORMAT:3 ENTANGLED_ADDRESSES:2562 CONF:3 0 CONF:0 0 CONF:0 0 CONF:0 0 CONF:0 0 CONF:0 BB SIZE:4
TAG:226 FORMAT:3 ENTANGLED_ADDRESSES:d53e CONF:3 0 CONF:0 0 CONF:0 0 CONF:0 0 CONF:0 0 CONF:0 BB SIZE:0
TAG:380 FORMAT:3 ENTANGLED_ADDRESSES:41ee CONF:1 228d1 CONF:3 228d0 CONF:3 0 CONF:0 0 CONF:0 0 CONF:0 BB SIZE:1
TAG:378 FORMAT:4 ENTANGLED_ADDRESSES:1786 CONF:2 0 CONF:0 0 CONF:0 0 CONF:0 0 CONF:0 0 CONF:0 BB SIZE:3
TAG:7a2 FORMAT:3 ENTANGLED_ADDRESSES:4a84 CONF:2 0 CONF:0 0 CONF:0 0 CONF:0 0 CONF:0 0 CONF:0 BB SIZE:1
TAG:78d FORMAT:6 ENTANGLED_ADDRESSES:d6 CONF:3 cf CONF:3 cb CONF:3 0 CONF:0 0 CONF:0 0 CONF:0 BB SIZE:2
TAG:d91 FORMAT:1 ENTANGLED_ADDRESSES:3fffc00002020bb CONF:3 0 CONF:0 0 CONF:0 0 CONF:0 0 CONF:0 0 CONF:0 BB SIZE:0
TAG:235 FORMAT:3 ENTANGLED_ADDRESSES:37ec CONF:3 236f CONF:3 1dc0 CONF:0 0 CONF:0 0 CONF:0 0 CONF:0 BB SIZE:10
TAG:2ee FORMAT:3 ENTANGLED_ADDRESSES:fc70 CONF:3 25516 CONF:2 2554b CONF:3 0 CONF:0 0 CONF:0 0 CONF:0 BB SIZE:2
TAG:7b9 FORMAT:4 ENTANGLED_ADDRESSES:17f4 CONF:1 187c CONF:3 0 CONF:0 0 CONF:0 0 CONF:0 0 CONF:0 BB SIZE:1
TAG:389 FORMAT:2 ENTANGLED_ADDRESSES:edf88fe CONF:3 edf85f0 CONF:3 0 CONF:0 0 CONF:0 0 CONF:0 0 CONF:0 BB SIZE:0
SET:11
TAG:3ef FORMAT:3 ENTANGLED_ADDRESSES:48e5 CONF:3 48d8 CONF:3 0 CONF:0 0 CONF:0 0 CONF:0 0 CONF:0 BB SIZE:0
TAG:71 FORMAT:3 ENTANGLED_ADDRESSES:11580 CONF:3 eea8 CONF:3 26c5 CONF:3 0 CONF:0 0 CONF:0 0 CONF:0 BB SIZE:1
TAG:28c FORMAT:3 ENTANGLED_ADDRESSES:1d8b CONF:3 f23c CONF:3 0 CONF:0 0 CONF:0 0 CONF:0 0 CONF:0 BB SIZE:1
TAG:26a FORMAT:3 ENTANGLED_ADDRESSES:5499 CONF:3 0 CONF:0 0 CONF:0 0 CONF:0 0 CONF:0 0 CONF:0 BB SIZE:2
TAG:afb FORMAT:4 ENTANGLED_ADDRESSES:1581 CONF:2 1580 CONF:3 bee CONF:3 222 CONF:0 1619 CONF:2 0 CONF:0 BB SIZE:1
TAG:389 FORMAT:3 ENTANGLED_ADDRESSES:e918 CONF:3 b77d CONF:0 b772 CONF:0 0 CONF:0 0 CONF:0 0 CONF:0 BB SIZE:1
TAG:380 FORMAT:3 ENTANGLED_ADDRESSES:4338 CONF:3 48c0 CONF:2 41ee CONF:2 0 CONF:0 0 CONF:0 0 CONF:0 BB SIZE:5
TAG:7f3 FORMAT:3 ENTANGLED_ADDRESSES:46e8 CONF:0 46eb CONF:2 46fa CONF:3 0 CONF:0 0 CONF:0 0 CONF:0 BB SIZE:2
TAG:a3 FORMAT:3 ENTANGLED_ADDRESSES:16222 CONF:2 dc05 CONF:3 11db2 CONF:3 0 CONF:0 0 CONF:0 0 CONF:0 BB SIZE:3
TAG:7bc FORMAT:4 ENTANGLED_ADDRESSES:1e76 CONF:3 1e7b CONF:3 1e79 CONF:3 36f CONF:3 0 CONF:0 0 CONF:0 BB SIZE:2
TAG:2f0 FORMAT:1 ENTANGLED_ADDRESSES:0 CONF:0 0 CONF:0 0 CONF:0 0 CONF:0 0 CONF:0 0 CONF:0 BB SIZE:2
TAG:78d FORMAT:3 ENTANGLED_ADDRESSES:30ac CONF:2 0 CONF:0 0 CONF:0 0 CONF:0 0 CONF:0 0 CONF:0 BB SIZE:1
TAG:92 FORMAT:3 ENTANGLED_ADDRESSES:25278 CONF:2 25015 CONF:2 23f08 CONF:2 0 CONF:0 0 CONF:0 0 CONF:0 BB SIZE:0
TAG:2d3 FORMAT:3 ENTANGLED_ADDRESSES:20bb CONF:2 780b CONF:3 fcec CONF:2 0 CONF:0 0 CONF:0 0 CONF:0 BB SIZE:3
TAG:a88 FORMAT:3 ENTANGLED_ADDRESSES:7683 CONF:3 0 CONF:0 0 CONF:0 0 CONF:0 0 CONF:0 0 CONF:0 BB SIZE:1
TAG:26d FORMAT:5 ENTANGLED_ADDRESSES:f9 CONF:3 fe CONF:3 46 CONF:3 b8 CONF:2 0 CONF:0 0 CONF:0 BB SIZE:3
SET:12
TAG:34c FORMAT:6 ENTANGLED_ADDRESSES:66 CONF:2 0 CONF:0 0 CONF:0 0 CONF:0 0 CONF:0 0 CONF:0 BB SIZE:1
TAG:2ab FORMAT:3 ENTANGLED_ADDRESSES:a94f CONF:2 1fa8 CONF:3 0 CONF:0 0 CONF:0 0 CONF:0 0 CONF:0 BB SIZE:2
TAG:235 FORMAT:3 ENTANGLED_ADDRESSES:12ccb CONF:3 0 CONF:0 0 CONF:0 0 CONF:0 0 CONF:0 0 CONF:0 BB SIZE:e
TAG:20f FORMAT:3 ENTANGLED_ADDRESSES:c9c4 CONF:3 26c5 CONF:2 18fc CONF:3 0 CONF:0 0 CONF:0 0 CONF:0 BB SIZE:b
TAG:2d3 FORMAT:6 ENTANGLED_ADDRESSES:b3 CONF:2 0 CONF:0 0 CONF:0 0 CONF:0 0 CONF:0 0 CONF:0 BB SIZE:1
TAG:27a FORMAT:3 ENTANGLED_ADDRESSES:245c7 CONF:1 245ce CONF:2 245d2 CONF:3 0 CONF:0 0 CONF:0 0 CONF:0 BB SIZE:4
TAG:26d FORMAT:4 ENTANGLED_ADDRESSES:1f1 CONF:3 0 CONF:0 0 CONF:0 0 CONF:0 0 CONF:0 0 CONF:0 BB SIZE:0
TAG:a89 FORMAT:6 ENTANGLED_ADDRESSES:aa CONF:3 0 CONF:0 0 CONF:0 0 CONF:0 0 CONF:0 0 CONF:0 BB SIZE:0
TAG:7f2 FORMAT:3 ENTANGLED_ADDRESSES:88af CONF:3 277c5 CONF:0 46e8 CONF:0 0 CONF:0 0 CONF:0 0 CONF:0 BB SIZE:0
TAG:3eb FORMAT:3 ENTANGLED_ADDRESSES:bfac CONF:2 bf9e CONF:2 e1ee CONF:3 0 CONF:0 0 CONF:0 0 CONF:0 BB SIZE:8
TAG:319 FORMAT:6 ENTANGLED_ADDRESSES:2f CONF:3 2c CONF:3 0 CONF:0 0 CONF:0 0 CONF:0 0 CONF:0 BB SIZE:3
TAG:773 FORMAT:6 ENTANGLED_ADDRESSES:9a CONF:3 0 CONF:0 0 CONF:0 0 CONF:0 0 CONF:0 0 CONF:0 BB SIZE:5
TAG:36 FORMAT:1 ENTANGLED_ADDRESSES:0 CONF:0 0 CONF:0 0 CONF:0 0 CONF:0 0 CONF:0 0 CONF:0 BB SIZE:3
TAG:2aa FORMAT:6 ENTANGLED_ADDRESSES:d1 CONF:3 d3 CONF:3 0 CONF:0 0 CONF:0 0 CONF:0 0 CONF:0 BB SIZE:1
TAG:53 FORMAT:3 ENTANGLED_ADDRESSES:13b6a CONF:3 5424 CONF:3 0 CONF:0 0 CONF:0 0 CONF:0 0 CONF:0 BB SIZE:1
TAG:3fc FORMAT:2 ENTANGLED_ADDRESSES:e8e49d9 CONF:3 eccd7da CONF:3 0 CONF:0 0 CONF:0 0 CONF:0 0 CONF:0 BB SIZE:d
SET:13
TAG:249 FORMAT:3 ENTANGLED_ADDRESSES:a956 CONF:3 11f95 CONF:1 1e8e CONF:3 0 CONF:0 0 CONF:0 0 CONF:0 BB SIZE:1
TAG:3cb FORMAT:3 ENTANGLED_ADDRESSES:f0a3 CONF:3 f0a7 CONF:3 f0b3 CONF:3 0 CONF:0 0 CONF:0 0 CONF:0 BB SIZE:1
TAG:286 FORMAT:4 ENTANGLED_ADDRESSES:650 CONF:3 6d5 CONF:3 719 CONF:3 5cf CONF:3 0 CONF:0 0 CONF:0 BB SIZE:3
TAG:319 FORMAT:3 ENTANGLED_ADDRESSES:8193 CONF:3 0 CONF:0 0 CONF:0 0 CONF:0 0 CONF:0 0 CONF:0 BB SIZE:1
TAG:61 FORMAT:3 ENTANGLED_ADDRESSES:28fa CONF:3 0 CONF:0 0 CONF:0 0 CONF:0 0 CONF:0 0 CONF:0 BB SIZE:2
TAG:289 FORMAT:3 ENTANGLED_ADDRESSES:28c2 CONF:3 16f6f CONF:2 1f9e CONF:3 0 CONF:0 0 CONF:0 0 CONF:0 BB SIZE:2
TAG:2d2 FORMAT:3 ENTANGLED_ADDRESSES:776e CONF:1 23e7f CONF:2 0 CONF:0 0 CONF:0 0 CONF:0 0 CONF:0 BB SIZE:1
TAG:26e FORMAT:3 ENTANGLED_ADDRESSES:fd0e CONF:2 38b8 CONF:3 3846 CONF:3 0 CONF:0 0 CONF:0 0 CONF:0 BB SIZE:2
TAG:225 FORMAT:3 ENTANGLED_ADDRESSES:15bf7 CONF:2 1f3c CONF:1 0 CONF:0 0 CONF:0 0 CONF:0 0 CONF:0 BB SIZE:6
TAG:247 FORMAT:1 ENTANGLED_ADDRESSES:0 CONF:0 0 CONF:0 0 CONF:0 0 CONF:0 0 CONF:0 0 CONF:0 BB SIZE:8
TAG:2ad FORMAT:3 ENTANGLED_ADDRESSES:12a7f CONF:2 12a84 CONF:2 12a89 CONF:2 0 CONF:0 0 CONF:0 0 CONF:0 BB SIZE:2
TAG:253 FORMAT:3 ENTANGLED_ADDRESSES:4af0 CONF:3 7f48 CONF:3 7f1e CONF:3 0 CONF:0 0 CONF:0 0 CONF:0 BB SIZE:2
TAG:34c FORMAT:3 ENTANGLED_ADDRESSES:f1b CONF:3 0 CONF:0 0 CONF:0 0 CONF:0 0 CONF:0 0 CONF:0 BB SIZE:1
TAG:26d FORMAT:5 ENTANGLED_ADDRESSES:243 CONF:3 1eb4 CONF:0 46 CONF:3 c5 CONF:2 0 CONF:0 0 CONF:0 BB SIZE:0
TAG:24a FORMAT:3 ENTANGLED_ADDRESSES:9668 CONF:3 5a26 CONF:0 0 CONF:0 0 CONF:0 0 CONF:0 0 CONF:0 BB SIZE:1
TAG:337 FORMAT:3 ENTANGLED_ADDRESSES:fe66 CONF:1 0 CONF:0 0 CONF:0 0 CONF:0 0 CONF:0 0 CONF:0 BB SIZE:1
SET:14
TAG:389 FORMAT:3 ENTANGLED_ADDRESSES:25547 CONF:3 25557 CONF:3 0 CONF:0 0 CONF:0 0 CONF:0 0 CONF:0 BB SIZE:2
TAG:7a2 FORMAT:5 ENTANGLED_ADDRESSES:383 CONF:1 201 CONF:2 203 CONF:2 238 CONF:2 237 CONF:2 0 CONF:0 BB SIZE:6
TAG:32b FORMAT:2 ENTANGLED_ADDRESSES:edf891b CONF:3 edcba33 CONF:3 0 CONF:0 0 CONF:0 0 CONF:0 0 CONF:0 BB SIZE:0
TAG:71 FORMAT:6 ENTANGLED_ADDRESSES:7e CONF:2 0 CONF:0 0 CONF:0 0 CONF:0 0 CONF:0 0 CONF:0 BB SIZE:3
TAG:106 FORMAT:3 ENTANGLED_ADDRESSES:3ae5 CONF:2 0 CONF:0 0 CONF:0 0 CONF:0 0 CONF:0 0 CONF:0 BB SIZE:2
TAG:7a3 FORMAT:4 ENTANGLED_ADDRESSES:14ab CONF:3 50 CONF:3 47 CONF:3 14c0 CONF:3 0 CONF:0 0 CONF:0 BB SIZE:0
TAG:7ba FORMAT:4 ENTANGLED_ADDRESSES:1151 CONF:3 1145 CONF:2 0 CONF:0 0 CONF:0 0 CONF:0 0 CONF:0 BB SIZE:0
TAG:319 FORMAT:3 ENTANGLED_ADDRESSES:15360 CONF:2 95c9 CONF:3 15365 CONF:2 0 CONF:0 0 CONF:0 0 CONF:0 BB SIZE:6
TAG:2a9 FORMAT:1 ENTANGLED_ADDRESSES:0 CONF:0 0 CONF:0 0 CONF:0 0 CONF:0 0 CONF:0 0 CONF:0 BB SIZE:4
TAG:367 FORMAT:3 ENTANGLED_ADDRESSES:eff6 CONF:0 3ae7 CONF:1 cb87 CONF:2 0 CONF:0 0 CONF:0 0 CONF:0 BB SIZE:1
TAG:226 FORMAT:3 ENTANGLED_ADDRESSES:14817 CONF:3 14834 CONF:3 9a6c CONF:3 0 CONF:0 0 CONF:0 0 CONF:0 BB SIZE:5
TAG:2cb FORMAT:3 ENTANGLED_ADDRESSES:7e6f CONF:3 8717 CONF:3 7e6c CONF:2 0 CONF:0 0 CONF:0 0 CONF:0 BB SIZE:2
TAG:36 FORMAT:6 ENTANGLED_ADDRESSES:84 CONF:2 89 CONF:2 0 CONF:0 0 CONF:0 0 CONF:0 0 CONF:0 BB SIZE:2
TAG:211 FORMAT:3 ENTANGLED_ADDRESSES:9982 CONF:0 52b4 CONF:0 a956 CONF:2 0 CONF:0 0 CONF:0 0 CONF:0 BB SIZE:2
TAG:7af FORMAT:4 ENTANGLED_ADDRESSES:1a20 CONF:3 1151 CONF:2 1a2c CONF:3 1a38 CONF:3 0 CONF:0 0 CONF:0 BB SIZE:0
TAG:26c FORMAT:3 ENTANGLED_ADDRESSES:da29 CONF:3 0 CONF:0 0 CONF:0 0 CONF:0 0 CONF:0 0 CONF:0 BB SIZE:0
SET:15
TAG:319 FORMAT:3 ENTANGLED_ADDRESSES:15360 CONF:2 c005 CONF:3 ffa3 CONF:3 0 CONF:0 0 CONF:0 0 CONF:0 BB SIZE:2
TAG:afc FORMAT:3 ENTANGLED_ADDRESSES:b636 CONF:2 b639 CONF:2 e107 CONF:2 0 CONF:0 0 CONF:0 0 CONF:0 BB SIZE:4
TAG:345 FORMAT:3 ENTANGLED_ADDRESSES:167c CONF:1 39a1 CONF:3 10a1d CONF:2 0 CONF:0 0 CONF:0 0 CONF:0 BB SIZE:4
TAG:32b FORMAT:2 ENTANGLED_ADDRESSES:e8e49c2 CONF:3 edb5ca9 CONF:3 0 CONF:0 0 CONF:0 0 CONF:0 0 CONF:0 BB SIZE:1
TAG:33f FORMAT:3 ENTANGLED_ADDRESSES:ef9 CONF:3 8be8 CONF:1 0 CONF:0 0 CONF:0 0 CONF:0 0 CONF:0 BB SIZE:9
TAG:2da FORMAT:3 ENTANGLED_ADDRESSES:ed5 CONF:3 5d26 CONF:3 0 CONF:0 0 CONF:0 0 CONF:0 0 CONF:0 BB SIZE:5
TAG:2b6 FORMAT:6 ENTANGLED_ADDRESSES:c3 CONF:2 0 CONF:0 0 CONF:0 0 CONF:0 0 CONF:0 0 CONF:0 BB SIZE:0
TAG:356 FORMAT:3 ENTANGLED_ADDRESSES:f0b3 CONF:0 15ba4 CONF:3 783a CONF:3 0 CONF:0 0 CONF:0 0 CONF:0 BB SIZE:2
TAG:301 FORMAT:3 ENTANGLED_ADDRESSES:774 CONF:3 512 CONF:3 2c74 CONF:3 0 CONF:0 0 CONF:0 0 CONF:0 BB SIZE:2
TAG:391 FORMAT:3 ENTANGLED_ADDRESSES:279a CONF:3 f725 CONF:3 0 CONF:0 0 CONF:0 0 CONF:0 0 CONF:0 BB SIZE:1
TAG:773 FORMAT:3 ENTANGLED_ADDRESSES:3e1fc CONF:3 38493 CONF:2 0 CONF:0 0 CONF:0 0 CONF:0 0 CONF:0 BB SIZE:4
TAG:7af FORMAT:4 ENTANGLED_ADDRESSES:113a CONF:2 1bfb CONF:1 1c01 CONF:3 0 CONF:0 0 CONF:0 0 CONF:0 BB SIZE:1
TAG:7ba FORMAT:4 ENTANGLED_ADDRESSES:1613 CONF:3 178c CONF:3 0 CONF:0 0 CONF:0 0 CONF:0 0 CONF:0 BB SIZE:2
TAG:7a2 FORMAT:1 ENTANGLED_ADDRESSES:0 CONF:0 0 CONF:0 0 CONF:0 0 CONF:0 0 CONF:0 0 CONF:0 BB SIZE:1
TAG:367 FORMAT:3 ENTANGLED_ADDRESSES:3586 CONF:3 a4da CONF:3 eac CONF:3 0 CONF:0 0 CONF:0 0 CONF:0 BB SIZE:1
TAG:2d2 FORMAT:3 ENTANGLED_ADDRESSES:23e7e CONF:3 25533 CONF:2 277ea CONF:2 0 CONF:0 0 CONF:0 0 CONF:0 BB SIZE:1
SET:16
TAG:2f1 FORMAT:3 ENTANGLED_ADDRESSES:796a CONF:2 7968 CONF:3 0 CONF:0 0 CONF:0 0 CONF:0 0 CONF:0 BB SIZE:0
TAG:afc FORMAT:4 ENTANGLED_ADDRESSES:1641 CONF:3 bee CONF:1 0 CONF:0 0 CONF:0 0 CONF:0 0 CONF:0 BB SIZE:1
TAG:310 FORMAT:3 ENTANGLED_ADDRESSES:100c2 CONF:3 0 CONF:0 0 CONF:0 0 CONF:0 0 CONF:0 0 CONF:0 BB SIZE:1
TAG:78d FORMAT:1 ENTANGLED_ADDRESSES:0 CONF:0 0 CONF:0 0 CONF:0 0 CONF:0 0 CONF:0 0 CONF:0 BB SIZE:1
TAG:30d FORMAT:3 ENTANGLED_ADDRESSES:2290 CONF:3 3971 CONF:3 2c69 CONF:3 0 CONF:0 0 CONF:0 0 CONF:0 BB SIZE:5
TAG:30b FORMAT:3 ENTANGLED_ADDRESSES:3f60 CONF:1 0 CONF:0 0 CONF:0 0 CONF:0 0 CONF:0 0 CONF:0 BB SIZE:8
TAG:7c3 FORMAT:2 ENTANGLED_ADDRESSES:edca284 CONF:2 0 CONF:0 0 CONF:0 0 CONF:0 0 CONF:0 0 CONF:0 BB SIZE:1
TAG:2a9 FORMAT:3 ENTANGLED_ADDRESSES:f50b CONF:3 3bca CONF:3 fbbc CONF:3 0 CONF:0 0 CONF:0 0 CONF:0 BB SIZE:1
TAG:f6 FORMAT:6 ENTANGLED_ADDRESSES:53 CONF:3 0 CONF:0 0 CONF:0 0 CONF:0 0 CONF:0 0 CONF:0 BB SIZE:1
TAG:268 FORMAT:3 ENTANGLED_ADDRESSES:214a CONF:3 276ff CONF:3 2133 CONF:2 0 CONF:0 0 CONF:0 0 CONF:0 BB SIZE:2
TAG:2b0 FORMAT:3 ENTANGLED_ADDRESSES:f7fe CONF:3 0 CONF:0 0 CONF:0 0 CONF:0 0 CONF:0 0 CONF:0 BB SIZE:1
TAG:2c2 FORMAT:3 ENTANGLED_ADDRESSES:566 CONF:2 52c CONF:2 93a9 CONF:0 5fa CONF:0 0 CONF:0 0 CONF:0 BB SIZE:2
TAG:34c FORMAT:3 ENTANGLED_ADDRESSES:18cd CONF:3 0 CONF:0 0 CONF:0 0 CONF:0 0 CONF:0 0 CONF:0 BB SIZE:1
TAG:2c4 FORMAT:3 ENTANGLED_ADDRESSES:8216 CONF:3 7ff1 CONF:3 0 CONF:0 0 CONF:0 0 CONF:0 0 CONF:0 BB SIZE:2
TAG:b93 FORMAT:2 ENTANGLED_ADDRESSES:edbd3b0 CONF:3 edbd3b3 CONF:3 0 CONF:0 0 CONF:0 0 CONF:0 0 CONF:0 BB SIZE:0
TAG:389 FORMAT:4 ENTANGLED_ADDRESSES:1c79 CONF:0 17d4 CONF:3 17ce CONF:2 0 CONF:0 0 CONF:0 0 CONF:0 BB SIZE:4
SET:17
TAG:afc FORMAT:3 ENTANGLED_ADDRESSES:377f CONF:3 0 CONF:0 0 CONF:0 0 CONF:0 0 CONF:0 0 CONF:0 BB SIZE:2
TAG:2c6 FORMAT:3 ENTANGLED_ADDRESSES:7c99 CONF:3 8870 CONF:3 228d1 CONF:3 0 CONF:0 0 CONF:0 0 CONF:0 BB SIZE:0
TAG:2aa FORMAT:6 ENTANGLED_ADDRESSES:a0 CONF:3 c7 CONF:3 0 CONF:0 0 CONF:0 0 CONF:0 0 CONF:0 BB SIZE:0
TAG:e0 FORMAT:3 ENTANGLED_ADDRESSES:ac65 CONF:3 0 CONF:0 0 CONF:0 0 CONF:0 0 CONF:0 0 CONF:0 BB SIZE:6
TAG:35d FORMAT:3 ENTANGLED_ADDRESSES:6f83 CONF:3 0 CONF:0 0 CONF:0 0 CONF:0 0 CONF:0 0 CONF:0 BB SIZE:2
TAG:22e FORMAT:4 ENTANGLED_ADDRESSES:b10 CONF:3 0 CONF:0 0 CONF:0 0 CONF:0 0 CONF:0 0 CONF:0 BB SIZE:3
TAG:28c FORMAT:1 ENTANGLED_ADDRESSES:0 CONF:0 0 CONF:0 0 CONF:0 0 CONF:0 0 CONF:0 0 CONF:0 BB SIZE:1
TAG:86 FORMAT:3 ENTANGLED_ADDRESSES:175ce CONF:2 10225 CONF:3 0 CONF:0 0 CONF:0 0 CONF:0 0 CONF:0 BB SIZE:8
TAG:39f FORMAT:6 ENTANGLED_ADDRESSES:ed CONF:3 a4 CONF:3 0 CONF:0 0 CONF:0 0 CONF:0 0 CONF:0 BB SIZE:4
TAG:7ad FORMAT:4 ENTANGLED_ADDRESSES:1774 CONF:3 177c CONF:3 127f CONF:3 0 CONF:0 0 CONF:0 0 CONF:0 BB SIZE:1
TAG:253 FORMAT:3 ENTANGLED_ADDRESSES:77fb CONF:3 4b21 CONF:3 4bd1 CONF:3 0 CONF:0 0 CONF:0 0 CONF:0 BB SIZE:0
TAG:d6 FORMAT:6 ENTANGLED_ADDRESSES:af CONF:3 a2 CONF:3 0 CONF:0 0 CONF:0 0 CONF:0 0 CONF:0 BB SIZE:6
TAG:2d2 FORMAT:3 ENTANGLED_ADDRESSES:79b9 CONF:0 27766 CONF:2 0 CONF:0 0 CONF:0 0 CONF:0 0 CONF:0 BB SIZE:2
TAG:22b FORMAT:3 ENTANGLED_ADDRESSES:eac CONF:3 0 CONF:0 0 CONF:0 0 CONF:0 0 CONF:0 0 CONF:0 BB SIZE:0
TAG:de FORMAT:1 ENTANGLED_ADDRESSES:3fffc00002077c5 CONF:3 e8e49df CONF:0 0 CONF:0 0 CONF:0 0 CONF:0 0 CONF:0 BB SIZE:1
TAG:7a8 FORMAT:5 ENTANGLED_ADDRESSES:4e CONF:3 0 CONF:0 0 CONF:0 0 CONF:0 0 CONF:0 0 CONF:0 BB SIZE:8
SET:18
TAG:106 FORMAT:2 ENTANGLED_ADDRESSES:edc5238 CONF:3 edc5239 CONF:3 0 CONF:0 0 CONF:0 0 CONF:0 0 CONF:0 BB SIZE:4
TAG:7b9 FORMAT:3 ENTANGLED_ADDRESSES:23f08 CONF:3 26393 CONF:3 25278 CONF:2 0 CONF:0 0 CONF:0 0 CONF:0 BB SIZE:6
TAG:de FORMAT:3 ENTANGLED_ADDRESSES:c5ab CONF:3 26c4 CONF:3 0 CONF:0 0 CONF:0 0 CONF:0 0 CONF:0 BB SIZE:5
TAG:34 FORMAT:6 ENTANGLED_ADDRESSES:ca CONF:0 c5 CONF:3 0 CONF:0 0 CONF:0 0 CONF:0 0 CONF:0 BB SIZE:3
TAG:271 FORMAT:3 ENTANGLED_ADDRESSES:bd19 CONF:3 cabb CONF:3 2ae8 CONF:3 0 CONF:0 0 CONF:0 0 CONF:0 BB SIZE:0
TAG:2b0 FORMAT:3 ENTANGLED_ADDRESSES:8877 CONF:3 8878 CONF:3 277e2 CONF:3 0 CONF:0 0 CONF:0 0 CONF:0 BB SIZE:2
TAG:282 FORMAT:3 ENTANGLED_ADDRESSES:b13e CONF:3 2b0b CONF:3 0 CONF:0 0 CONF:0 0 CONF:0 0 CONF:0 BB SIZE:11
TAG:7a2 FORMAT:4 ENTANGLED_ADDRESSES:15f CONF:3 0 CONF:0 0 CONF:0 0 CONF:0 0 CONF:0 0 CONF:0 BB SIZE:1
TAG:309 FORMAT:2 ENTANGLED_ADDRESSES:e8e4989 CONF:3 e8e4a5a CONF:3 0 CONF:0 0 CONF:0 0 CONF:0 0 CONF:0 BB SIZE:1
TAG:34f FORMAT:6 ENTANGLED_ADDRESSES:91 CONF:3 0 CONF:0 0 CONF:0 0 CONF:0 0 CONF:0 0 CONF:0 BB SIZE:2
TAG:2b4 FORMAT:3 ENTANGLED_ADDRESSES:f94b CONF:3 46f5 CONF:3 0 CONF:0 0 CONF:0 0 CONF:0 0 CONF:0 BB SIZE:1
TAG:a8 FORMAT:3 ENTANGLED_ADDRESSES:7c6b CONF:3 7c82 CONF:3 7c84 CONF:3 0 CONF:0 0 CONF:0 0 CONF:0 BB SIZE:3
TAG:3f4 FORMAT:6 ENTANGLED_ADDRESSES:78 CONF:3 0 CONF:0 0 CONF:0 0 CONF:0 0 CONF:0 0 CONF:0 BB SIZE:a
TAG:29a FORMAT:3 ENTANGLED_ADDRESSES:7831 CONF:3 0 CONF:0 0 CONF:0 0 CONF:0 0 CONF:0 0 CONF:0 BB SIZE:1
TAG:356 FORMAT:3 ENTANGLED_ADDRESSES:a952 CONF:3 0 CONF:0 0 CONF:0 0 CONF:0 0 CONF:0 0 CONF:0 BB SIZE:1
TAG:363 FORMAT:3 ENTANGLED_ADDRESSES:7831 CONF:3 0 CONF:0 0 CONF:0 0 CONF:0 0 CONF:0 0 CONF:0 BB SIZE:4
SET:19
TAG:a8 FORMAT:4 ENTANGLED_ADDRESSES:a17 CONF:3 0 CONF:0 0 CONF:0 0 CONF:0 0 CONF:0 0 CONF:0 BB SIZE:e
TAG:26b FORMAT:1 ENTANGLED_ADDRESSES:0 CONF:0 0 CONF:0 0 CONF:0 0 CONF:0 0 CONF:0 0 CONF:0 BB SIZE:1
TAG:6a2 FORMAT:1 ENTANGLED_ADDRESSES:3fffc0000202070 CONF:2 0 CONF:0 0 CONF:0 0 CONF:0 0 CONF:0 0 CONF:0 BB SIZE:0
TAG:33f FORMAT:3 ENTANGLED_ADDRESSES:bf53 CONF:3 edf CONF:3 cb59 CONF:3 0 CONF:0 0 CONF:0 0 CONF:0 BB SIZE:5
TAG:3df FORMAT:2 ENTANGLED_ADDRESSES:edf891b CONF:3 ecca209 CONF:3 0 CONF:0 0 CONF:0 0 CONF:0 0 CONF:0 BB SIZE:3
TAG:740 FORMAT:3 ENTANGLED_ADDRESSES:25f1d CONF:0 7031 CONF:3 25b53 CONF:2 0 CONF:0 0 CONF:0 0 CONF:0 BB SIZE:0
TAG:afc FORMAT:3 ENTANGLED_ADDRESSES:b63b CONF:1 b5c5 CONF:1 8188 CONF:2 0 CONF:0 0 CONF:0 0 CONF:0 BB SIZE:2
TAG:33c FORMAT:3 ENTANGLED_ADDRESSES:cb50 CONF:2 1d8b CONF:3 2707 CONF:2 0 CONF:0 0 CONF:0 0 CONF:0 BB SIZE:f
TAG:250 FORMAT:3 ENTANGLED_ADDRESSES:588f CONF:2 382a CONF:3 24a9 CONF:3 0 CONF:0 0 CONF:0 0 CONF:0 BB SIZE:3
TAG:2c9 FORMAT:5 ENTANGLED_ADDRESSES:243 CONF:2 0 CONF:0 0 CONF:0 0 CONF:0 0 CONF:0 0 CONF:0 BB SIZE:1
TAG:7a8 FORMAT:4 ENTANGLED_ADDRESSES:61d CONF:3 607 CONF:3 618 CONF:3 631 CONF:3 0 CONF:0 0 CONF:0 BB SIZE:6
TAG:301 FORMAT:3 ENTANGLED_ADDRESSES:edb CONF:3 b50 CONF:0 d2b4 CONF:3 d2ef CONF:1 0 CONF:0 0 CONF:0 BB SIZE:a
TAG:7a0 FORMAT:5 ENTANGLED_ADDRESSES:238 CONF:3 37f CONF:2 38c CONF:2 22d CONF:3 230 CONF:3 0 CONF:0 BB SIZE:1
TAG:743 FORMAT:3 ENTANGLED_ADDRESSES:25777 CONF:3 25a25 CONF:3 25141 CONF:3 0 CONF:0 0 CONF:0 0 CONF:0 BB SIZE:1
TAG:71 FORMAT:2 ENTANGLED_ADDRESSES:edcba33 CONF:2 ecd1573 CONF:3 0 CONF:0 0 CONF:0 0 CONF:0 0 CONF:0 BB SIZE:2
TAG:201 FORMAT:6 ENTANGLED_ADDRESSES:80 CONF:3 82 CONF:2 84 CONF:0 0 CONF:0 0 CONF:0 0 CONF:0 BB SIZE:4
SET:20
TAG:78d FORMAT:5 ENTANGLED_ADDRESSES:1d2 CONF:3 c2 CONF:3 ca CONF:3 0 CONF:0 0 CONF:0 0 CONF:0 BB SIZE:1
TAG:78b FORMAT:3 ENTANGLED_ADDRESSES:17d40 CONF:3 0 CONF:0 0 CONF:0 0 CONF:0 0 CONF:0 0 CONF:0 BB SIZE:1
TAG:2b6 FORMAT:4 ENTANGLED_ADDRESSES:6df CONF:3 bac CONF:3 bb6 CONF:0 bb7 CONF:3 0 CONF:0 0 CONF:0 BB SIZE:0
TAG:bb6 FORMAT:6 ENTANGLED_ADDRESSES:33 CONF:3 0 CONF:0 0 CONF:0 0 CONF:0 0 CONF:0 0 CONF:0 BB SIZE:0
TAG:309 FORMAT:3 ENTANGLED_ADDRESSES:13a7 CONF:3 f6e4 CONF:2 f6ef CONF:2 0 CONF:0 0 CONF:0 0 CONF:0 BB SIZE:1
TAG:d2e FORMAT:2 ENTANGLED_ADDRESSES:eccc33e CONF:2 ecccafb CONF:0 0 CONF:0 0 CONF:0 0 CONF:0 0 CONF:0 BB SIZE:1
TAG:223 FORMAT:3 ENTANGLED_ADDRESSES:aa49 CONF:3 0 CONF:0 0 CONF:0 0 CONF:0 0 CONF:0 0 CONF:0 BB SIZE:8
TAG:27a FORMAT:6 ENTANGLED_ADDRESSES:ba CONF:3 0 CONF:0 0 CONF:0 0 CONF:0 0 CONF:0 0 CONF:0 BB SIZE:1
TAG:387 FORMAT:4 ENTANGLED_ADDRESSES:954 CONF:1 0 CONF:0 0 CONF:0 0 CONF:0 0 CONF:0 0 CONF:0 BB SIZE:3
TAG:289 FORMAT:4 ENTANGLED_ADDRESSES:1fc0 CONF:1 0 CONF:0 0 CONF:0 0 CONF:0 0 CONF:0 0 CONF:0 BB SIZE:1
TAG:301 FORMAT:3 ENTANGLED_ADDRESSES:18c9a CONF:1 0 CONF:0 0 CONF:0 0 CONF:0 0 CONF:0 0 CONF:0 BB SIZE:1
TAG:26c FORMAT:3 ENTANGLED_ADDRESSES:ce66 CONF:3 a18c CONF:3 c1b9 CONF:3 0 CONF:0 0 CONF:0 0 CONF:0 BB SIZE:2
TAG:2fb FORMAT:3 ENTANGLED_ADDRESSES:1bac CONF:2 1bab CONF:2 3dcf CONF:3 0 CONF:0 0 CONF:0 0 CONF:0 BB SIZE:3
TAG:740 FORMAT:3 ENTANGLED_ADDRESSES:25f1d CONF:3 23e80 CONF:2 2504e CONF:3 0 CONF:0 0 CONF:0 0 CONF:0 BB SIZE:3
TAG:2d2 FORMAT:1 ENTANGLED_ADDRESSES:0 CONF:0 0 CONF:0 0 CONF:0 0 CONF:0 0 CONF:0 0 CONF:0 BB SIZE:1
TAG:281 FORMAT:3 ENTANGLED_ADDRESSES:40fc CONF:2 2b0b CONF:2 0 CONF:0 0 CONF:0 0 CONF:0 0 CONF:0 BB SIZE:4
SET:21
TAG:106 FORMAT:5 ENTANGLED_ADDRESSES:80 CONF:3 6f CONF:3 18d CONF:3 0 CONF:0 0 CONF:0 0 CONF:0 BB SIZE:2
TAG:27c FORMAT:3 ENTANGLED_ADDRESSES:c3a9 CONF:2 0 CONF:0 0 CONF:0 0 CONF:0 0 CONF:0 0 CONF:0 BB SIZE:3
TAG:225 FORMAT:4 ENTANGLED_ADDRESSES:f8f CONF:3 f85 CONF:3 f88 CONF:3 f8d CONF:3 0 CONF:0 0 CONF:0 BB SIZE:0
TAG:268 FORMAT:3 ENTANGLED_ADDRESSES:f7c6 CONF:3 1b24 CONF:0 212e CONF:3 212c CONF:3 0 CONF:0 0 CONF:0 BB SIZE:6
TAG:afa FORMAT:5 ENTANGLED_ADDRESSES:218 CONF:3 22e CONF:3 0 CONF:0 0 CONF:0 0 CONF:0 0 CONF:0 BB SIZE:0
TAG:3c8 FORMAT:3 ENTANGLED_ADDRESSES:2441 CONF:1 0 CONF:0 0 CONF:0 0 CONF:0 0 CONF:0 0 CONF:0 BB SIZE:9
TAG:afc FORMAT:6 ENTANGLED_ADDRESSES:31 CONF:1 41 CONF:1 18 CONF:2 4 CONF:3 0 CONF:0 0 CONF:0 BB SIZE:2
TAG:33e FORMAT:1 ENTANGLED_ADDRESSES:0 CONF:0 0 CONF:0 0 CONF:0 0 CONF:0 0 CONF:0 0 CONF:0 BB SIZE:1
TAG:a8 FORMAT:1 ENTANGLED_ADDRESSES:0 CONF:0 0 CONF:0 0 CONF:0 0 CONF:0 0 CONF:0 0 CONF:0 BB SIZE:1
TAG:363 FORMAT:1 ENTANGLED_ADDRESSES:0 CONF:0 0 CONF:0 0 CONF:0 0 CONF:0 0 CONF:0 0 CONF:0 BB SIZE:2
TAG:a1e FORMAT:2 ENTANGLED_ADDRESSES:edbc8f1 CONF:3 edbc8f9 CONF:3 0 CONF:0 0 CONF:0 0 CONF:0 0 CONF:0 BB SIZE:2
TAG:264 FORMAT:4 ENTANGLED_ADDRESSES:1a82 CONF:2 1a7b CONF:3 1a78 CONF:3 1a7a CONF:3 0 CONF:0 0 CONF:0 BB SIZE:6
TAG:2b5 FORMAT:3 ENTANGLED_ADDRESSES:4abf CONF:3 4a91 CONF:3 3934 CONF:3 0 CONF:0 0 CONF:0 0 CONF:0 BB SIZE:2
TAG:384 FORMAT:3 ENTANGLED_ADDRESSES:681d CONF:3 8f52 CONF:2 2251 CONF:3 0 CONF:0 0 CONF:0 0 CONF:0 BB SIZE:d
TAG:2c8 FORMAT:5 ENTANGLED_ADDRESSES:2c7 CONF:3 14568 CONF:0 243 CONF:2 0 CONF:0 0 CONF:0 0 CONF:0 BB SIZE:1
TAG:3a5 FORMAT:3 ENTANGLED_ADDRESSES:168a6 CONF:3 0 CONF:0 0 CONF:0 0 CONF:0 0 CONF:0 0 CONF:0 BB SIZE:2
SET:22
TAG:78b FORMAT:4 ENTANGLED_ADDRESSES:17f0 CONF:2 0 CONF:0 0 CONF:0 0 CONF:0 0 CONF:0 0 CONF:0 BB SIZE:1
TAG:d2e FORMAT:2 ENTANGLED_ADDRESSES:ecc2a64 CONF:3 edff413 CONF:0 edfc753 CONF:0 0 CONF:0 0 CONF:0 0 CONF:0 BB SIZE:2
TAG:2d2 FORMAT:3 ENTANGLED_ADDRESSES:fcf1 CONF:2 f7ea CONF:2 f7e8 CONF:2 0 CONF:0 0 CONF:0 0 CONF:0 BB SIZE:3
TAG:3df FORMAT:3 ENTANGLED_ADDRESSES:a1f2 CONF:3 18c41 CONF:2 0 CONF:0 0 CONF:0 0 CONF:0 0 CONF:0 BB SIZE:1
TAG:a8 FORMAT:1 ENTANGLED_ADDRESSES:0 CONF:0 0 CONF:0 0 CONF:0 0 CONF:0 0 CONF:0 0 CONF:0 BB SIZE:3
TAG:2a9 FORMAT:3 ENTANGLED_ADDRESSES:1f9d CONF:2 131a0 CONF:3 2fc3 CONF:3 0 CONF:0 0 CONF:0 0 CONF:0 BB SIZE:16
TAG:350 FORMAT:6 ENTANGLED_ADDRESSES:5f CONF:2 0 CONF:0 0 CONF:0 0 CONF:0 0 CONF:0 0 CONF:0 BB SIZE:1
TAG:101 FORMAT:2 ENTANGLED_ADDRESSES:edce239 CONF:3 edce240 CONF:3 0 CONF:0 0 CONF:0 0 CONF:0 0 CONF:0 BB SIZE:f
TAG:250 FORMAT:4 ENTANGLED_ADDRESSES:182a CONF:3 0 CONF:0 0 CONF:0 0 CONF:0 0 CONF:0 0 CONF:0 BB SIZE:1
TAG:356 FORMAT:3 ENTANGLED_ADDRESSES:a6c5 CONF:3 a6ca CONF:3 146bb CONF:3 0 CONF:0 0 CONF:0 0 CONF:0 BB SIZE:0
TAG:3a8 FORMAT:3 ENTANGLED_ADDRESSES:c066 CONF:2 a46d CONF:3 dd28 CONF:3 0 CONF:0 0 CONF:0 0 CONF:0 BB SIZE:5
TAG:387 FORMAT:6 ENTANGLED_ADDRESSES:31 CONF:3 0 CONF:0 0 CONF:0 0 CONF:0 0 CONF:0 0 CONF:0 BB SIZE:1
TAG:2c2 FORMAT:3 ENTANGLED_ADDRESSES:65a9 CONF:2 0 CONF:0 0 CONF:0 0 CONF:0 0 CONF:0 0 CONF:0 BB SIZE:2
TAG:f4 FORMAT:3 ENTANGLED_ADDRESSES:1ba7 CONF:3 1bac CONF:3 1bab CONF:3 0 CONF:0 0 CONF:0 0 CONF:0 BB SIZE:1
TAG:3fe FORMAT:2 ENTANGLED_ADDRESSES:eccb7fa CONF:2 edce101 CONF:3 0 CONF:0 0 CONF:0 0 CONF:0 0 CONF:0 BB SIZE:1
TAG:251 FORMAT:2 ENTANGLED_ADDRESSES:edcb6e2 CONF:2 ecc145a CONF:3 0 CONF:0 0 CONF:0 0 CONF:0 0 CONF:0 BB SIZE:1
SET:23
TAG:a8a FORMAT:5 ENTANGLED_ADDRESSES:144 CONF:2 99 CONF:2 0 CONF:0 0 CONF:0 0 CONF:0 0 CONF:0 BB SIZE:2
TAG:57 FORMAT:4 ENTANGLED_ADDRESSES:13c0 CONF:3 0 CONF:0 0 CONF:0 0 CONF:0 0 CONF:0 0 CONF:0 BB SIZE:2
TAG:71 FORMAT:3 ENTANGLED_ADDRESSES:c32e CONF:3 c924 CONF:3 c33e CONF:3 0 CONF:0 0 CONF:0 0 CONF:0 BB SIZE:7
TAG:268 FORMAT:3 ENTANGLED_ADDRESSES:3b0f CONF:3 f7c6 CONF:3 3b22 CONF:3 0 CONF:0 0 CONF:0 0 CONF:0 BB SIZE:1
TAG:7aa FORMAT:4 ENTANGLED_ADDRESSES:1a32 CONF:2 196e CONF:0 0 CONF:0 0 CONF:0 0 CONF:0 0 CONF:0 BB SIZE:0
TAG:26c FORMAT:3 ENTANGLED_ADDRESSES:12116 CONF:2 1f9e CONF:3 12878 CONF:2 0 CONF:0 0 CONF:0 0 CONF:0 BB SIZE:7
TAG:368 FORMAT:3 ENTANGLED_ADDRESSES:e92e CONF:0 1533 CONF:3 e96a CONF:3 0 CONF:0 0 CONF:0 0 CONF:0 BB SIZE:10
TAG:2b4 FORMAT:3 ENTANGLED_ADDRESSES:46f1 CONF:2 38f6 CONF:0 20bb CONF:3 0 CONF:0 0 CONF:0 0 CONF:0 BB SIZE:1
TAG:7bc FORMAT:2 ENTANGLED_ADDRESSES:edce1ca CONF:3 edcb72c CONF:3 0 CONF:0 0 CONF:0 0 CONF:0 0 CONF:0 BB SIZE:1
TAG:387 FORMAT:6 ENTANGLED_ADDRESSES:2f CONF:3 0 CONF:0 0 CONF:0 0 CONF:0 0 CONF:0 0 CONF:0 BB SIZE:5
TAG:55 FORMAT:2 ENTANGLED_ADDRESSES:edcba33 CONF:3 ecc9a59 CONF:3 0 CONF:0 0 CONF:0 0 CONF:0 0 CONF:0 BB SIZE:1
TAG:226 FORMAT:3 ENTANGLED_ADDRESSES:de76 CONF:2 1f9a CONF:1 4411 CONF:2 0 CONF:0 0 CONF:0 0 CONF:0 BB SIZE:9
TAG:247 FORMAT:1 ENTANGLED_ADDRESSES:0 CONF:0 0 CONF:0 0 CONF:0 0 CONF:0 0 CONF:0 0 CONF:0 BB SIZE:1
TAG:289 FORMAT:3 ENTANGLED_ADDRESSES:1c05 CONF:2 1c1d CONF:2 0 CONF:0 0 CONF:0 0 CONF:0 0 CONF:0 BB SIZE:2
TAG:2a1 FORMAT:3 ENTANGLED_ADDRESSES:420a CONF:2 f9ac CONF:3 0 CONF:0 0 CONF:0 0 CONF:0 0 CONF:0 BB SIZE:2
TAG:3a5 FORMAT:3 ENTANGLED_ADDRESSES:f68c CONF:3 b4e6 CONF:3 b4eb CONF:3 0 CONF:0 0 CONF:0 0 CONF:0 BB SIZE:1
SET:24
TAG:78d FORMAT:3 ENTANGLED_ADDRESSES:245d0 CONF:3 30aa CONF:3 245ce CONF:3 0 CONF:0 0 CONF:0 0 CONF:0 BB SIZE:0
TAG:289 FORMAT:4 ENTANGLED_ADDRESSES:1fc0 CONF:3 0 CONF:0 0 CONF:0 0 CONF:0 0 CONF:0 0 CONF:0 BB SIZE:3
TAG:348 FORMAT:3 ENTANGLED_ADDRESSES:7831 CONF:3 fcc8 CONF:3 783a CONF:3 0 CONF:0 0 CONF:0 0 CONF:0 BB SIZE:5
TAG:7b9 FORMAT:4 ENTANGLED_ADDRESSES:1850 CONF:0 1280 CONF:3 0 CONF:0 0 CONF:0 0 CONF:0 0 CONF:0 BB SIZE:5
TAG:2b5 FORMAT:3 ENTANGLED_ADDRESSES:21d52 CONF:2 4513 CONF:2 206a CONF:3 0 CONF:0 0 CONF:0 0 CONF:0 BB SIZE:1
TAG:34 FORMAT:2 ENTANGLED_ADDRESSES:edd0d0c CONF:3 edc43bc CONF:3 0 CONF:0 0 CONF:0 0 CONF:0 0 CONF:0 BB SIZE:1
TAG:384 FORMAT:1 ENTANGLED_ADDRESSES:0 CONF:0 0 CONF:0 0 CONF:0 0 CONF:0 0 CONF:0 0 CONF:0 BB SIZE:c
TAG:55 FORMAT:3 ENTANGLED_ADDRESSES:15004 CONF:3 f95b CONF:0 3b09 CONF:0 0 CONF:0 0 CONF:0 0 CONF:0 BB SIZE:2
TAG:29f FORMAT:3 ENTANGLED_ADDRESSES:5bdc CONF:3 61ea CONF:3 5bf7 CONF:3 0 CONF:0 0 CONF:0 0 CONF:0 BB SIZE:4
TAG:35c FORMAT:3 ENTANGLED_ADDRESSES:25444 CONF:2 88bf CONF:1 79b9 CONF:0 0 CONF:0 0 CONF:0 0 CONF:0 BB SIZE:6
TAG:fc FORMAT:3 ENTANGLED_ADDRESSES:1454a CONF:3 cde CONF:3 0 CONF:0 0 CONF:0 0 CONF:0 0 CONF:0 BB SIZE:2
TAG:211 FORMAT:3 ENTANGLED_ADDRESSES:305a CONF:2 0 CONF:0 0 CONF:0 0 CONF:0 0 CONF:0 0 CONF:0 BB SIZE:2
TAG:715 FORMAT:3 ENTANGLED_ADDRESSES:2139 CONF:3 209c CONF:2 0 CONF:0 0 CONF:0 0 CONF:0 0 CONF:0 BB SIZE:1
TAG:2d8 FORMAT:3 ENTANGLED_ADDRESSES:1c1d CONF:3 2e7b CONF:2 2e7e CONF:3 0 CONF:0 0 CONF:0 0 CONF:0 BB SIZE:1
TAG:106 FORMAT:6 ENTANGLED_ADDRESSES:79 CONF:3 0 CONF:0 0 CONF:0 0 CONF:0 0 CONF:0 0 CONF:0 BB SIZE:5
TAG:379 FORMAT:3 ENTANGLED_ADDRESSES:4473 CONF:3 2efc CONF:3 0 CONF:0 0 CONF:0 0 CONF:0 0 CONF:0 BB SIZE:1
SET:25
TAG:de FORMAT:2 ENTANGLED_ADDRESSES:e8e4988 CONF:2 e8e4a11 CONF:2 0 CONF:0 0 CONF:0 0 CONF:0 0 CONF:0 BB SIZE:1
TAG:78d FORMAT:6 ENTANGLED_ADDRESSES:d2 CONF:2 5c CONF:3 0 CONF:0 0 CONF:0 0 CONF:0 0 CONF:0 BB SIZE:4
TAG:7bb FORMAT:3 ENTANGLED_ADDRESSES:23f8c CONF:3 46c5 CONF:2 0 CONF:0 0 CONF:0 0 CONF:0 0 CONF:0 BB SIZE:1
TAG:3ee FORMAT:2 ENTANGLED_ADDRESSES:edf7755 CONF:3 e8e49bc CONF:3 0 CONF:0 0 CONF:0 0 CONF:0 0 CONF:0 BB SIZE:5
TAG:3fe FORMAT:2 ENTANGLED_ADDRESSES:edb5ca9 CONF:3 edbfab0 CONF:3 0 CONF:0 0 CONF:0 0 CONF:0 0 CONF:0 BB SIZE:1
TAG:267 FORMAT:3 ENTANGLED_ADDRESSES:3d3c CONF:2 f9f6 CONF:3 0 CONF:0 0 CONF:0 0 CONF:0 0 CONF:0 BB SIZE:1
TAG:27a FORMAT:3 ENTANGLED_ADDRESSES:30a7 CONF:1 245c7 CONF:3 245ce CONF:3 0 CONF:0 0 CONF:0 0 CONF:0 BB SIZE:1
TAG:e0 FORMAT:3 ENTANGLED_ADDRESSES:14853 CONF:3 6b26 CONF:3 0 CONF:0 0 CONF:0 0 CONF:0 0 CONF:0 BB SIZE:4
TAG:31e FORMAT:3 ENTANGLED_ADDRESSES:6b37 CONF:3 6b33 CONF:3 3dbc CONF:3 0 CONF:0 0 CONF:0 0 CONF:0 BB SIZE:4
TAG:389 FORMAT:2 ENTANGLED_ADDRESSES:ecc80b4 CONF:2 edb5cab CONF:2 0 CONF:0 0 CONF:0 0 CONF:0 0 CONF:0 BB SIZE:7
TAG:2b7 FORMAT:3 ENTANGLED_ADDRESSES:38f6 CONF:3 3902 CONF:2 38fe CONF:3 0 CONF:0 0 CONF:0 0 CONF:0 BB SIZE:1
TAG:385 FORMAT:3 ENTANGLED_ADDRESSES:13d86 CONF:3 0 CONF:0 0 CONF:0 0 CONF:0 0 CONF:0 0 CONF:0 BB SIZE:2
TAG:33e FORMAT:3 ENTANGLED_ADDRESSES:cb8d CONF:3 cb9a CONF:3 2612 CONF:3 0 CONF:0 0 CONF:0 0 CONF:0 BB SIZE:1
TAG:7a0 FORMAT:5 ENTANGLED_ADDRESSES:380 CONF:3 383 CONF:3 233 CONF:2 22a CONF:0 0 CONF:0 0 CONF:0 BB SIZE:6
TAG:7f1 FORMAT:3 ENTANGLED_ADDRESSES:2768d CONF:1 25705 CONF:3 0 CONF:0 0 CONF:0 0 CONF:0 0 CONF:0 BB SIZE:2
TAG:247 FORMAT:1 ENTANGLED_ADDRESSES:0 CONF:0 0 CONF:0 0 CONF:0 0 CONF:0 0 CONF:0 0 CONF:0 BB SIZE:1
SET:26
TAG:57 FORMAT:3 ENTANGLED_ADDRESSES:f1b CONF:3 0 CONF:0 0 CONF:0 0 CONF:0 0 CONF:0 0 CONF:0 BB SIZE:6
TAG:afa FORMAT:4 ENTANGLED_ADDRESSES:1bd7 CONF:3 1619 CONF:3 1624 CONF:3 1620 CONF:3 0 CONF:0 0 CONF:0 BB SIZE:0
TAG:2c2 FORMAT:4 ENTANGLED_ADDRESSES:5b4 CONF:1 68d CONF:3 698 CONF:3 5a6 CONF:3 0 CONF:0 0 CONF:0 BB SIZE:3
TAG:267 FORMAT:4 ENTANGLED_ADDRESSES:133 CONF:3 1d40 CONF:0 0 CONF:0 0 CONF:0 0 CONF:0 0 CONF:0 BB SIZE:0
TAG:3fe FORMAT:2 ENTANGLED_ADDRESSES:eccc337 CONF:3 edf891b CONF:3 0 CONF:0 0 CONF:0 0 CONF:0 0 CONF:0 BB SIZE:3
TAG:26a FORMAT:3 ENTANGLED_ADDRESSES:548a CONF:3 0 CONF:0 0 CONF:0 0 CONF:0 0 CONF:0 0 CONF:0 BB SIZE:1
TAG:fc FORMAT:3 ENTANGLED_ADDRESSES:14548 CONF:3 14565 CONF:3 cdd CONF:3 0 CONF:0 0 CONF:0 0 CONF:0 BB SIZE:1
TAG:3c8 FORMAT:6 ENTANGLED_ADDRESSES:a5 CONF:3 0 CONF:0 0 CONF:0 0 CONF:0 0 CONF:0 0 CONF:0 BB SIZE:3
TAG:2f3 FORMAT:3 ENTANGLED_ADDRESSES:6168 CONF:3 fd10 CONF:3 61a0 CONF:3 0 CONF:0 0 CONF:0 0 CONF:0 BB SIZE:1
TAG:2ad FORMAT:3 ENTANGLED_ADDRESSES:f9b1 CONF:2 f9ac CONF:3 41ee CONF:3 0 CONF:0 0 CONF:0 0 CONF:0 BB SIZE:1
TAG:253 FORMAT:3 ENTANGLED_ADDRESSES:420a CONF:3 45c6 CONF:3 43da CONF:3 0 CONF:0 0 CONF:0 0 CONF:0 BB SIZE:3
TAG:6e3 FORMAT:2 ENTANGLED_ADDRESSES:edf724b CONF:2 edf7249 CONF:3 0 CONF:0 0 CONF:0 0 CONF:0 0 CONF:0 BB SIZE:1
TAG:afc FORMAT:4 ENTANGLED_ADDRESSES:1619 CONF:3 157e CONF:3 1632 CONF:3 1bdf CONF:2 0 CONF:0 0 CONF:0 BB SIZE:1
TAG:7aa FORMAT:4 ENTANGLED_ADDRESSES:1a42 CONF:3 1a43 CONF:3 137d CONF:2 19ab CONF:2 0 CONF:0 0 CONF:0 BB SIZE:3
TAG:2b7 FORMAT:3 ENTANGLED_ADDRESSES:f94b CONF:1 46f5 CONF:1 0 CONF:0 0 CONF:0 0 CONF:0 0 CONF:0 BB SIZE:2
TAG:cf FORMAT:1 ENTANGLED_ADDRESSES:0 CONF:0 0 CONF:0 0 CONF:0 0 CONF:0 0 CONF:0 0 CONF:0 BB SIZE:10
SET:27
TAG:2ce FORMAT:5 ENTANGLED_ADDRESSES:30a CONF:3 0 CONF:0 0 CONF:0 0 CONF:0 0 CONF:0 0 CONF:0 BB SIZE:1
TAG:afa FORMAT:3 ENTANGLED_ADDRESSES:b5d2 CONF:3 8188 CONF:1 b5d8 CONF:3 0 CONF:0 0 CONF:0 0 CONF:0 BB SIZE:2
TAG:213 FORMAT:3 ENTANGLED_ADDRESSES:9660 CONF:3 3601 CONF:3 0 CONF:0 0 CONF:0 0 CONF:0 0 CONF:0 BB SIZE:1
TAG:2c8 FORMAT:3 ENTANGLED_ADDRESSES:79c3 CONF:2 f7f0 CONF:3 15d20 CONF:3 0 CONF:0 0 CONF:0 0 CONF:0 BB SIZE:2
TAG:2a7 FORMAT:3 ENTANGLED_ADDRESSES:277e1 CONF:3 0 CONF:0 0 CONF:0 0 CONF:0 0 CONF:0 0 CONF:0 BB SIZE:1
TAG:37d FORMAT:4 ENTANGLED_ADDRESSES:1725 CONF:3 cb2 CONF:3 cad CONF:3 0 CONF:0 0 CONF:0 0 CONF:0 BB SIZE:1
TAG:3af FORMAT:3 ENTANGLED_ADDRESSES:1788 CONF:3 178c CONF:3 0 CONF:0 0 CONF:0 0 CONF:0 0 CONF:0 BB SIZE:2
TAG:253 FORMAT:3 ENTANGLED_ADDRESSES:4afe CONF:1 46f1 CONF:2 0 CONF:0 0 CONF:0 0 CONF:0 0 CONF:0 BB SIZE:1
TAG:356 FORMAT:6 ENTANGLED_ADDRESSES:b5 CONF:3 0 CONF:0 0 CONF:0 0 CONF:0 0 CONF:0 0 CONF:0 BB SIZE:1
TAG:c3 FORMAT:3 ENTANGLED_ADDRESSES:f12 CONF:2 0 CONF:0 0 CONF:0 0 CONF:0 0 CONF:0 0 CONF:0 BB SIZE:1
TAG:71 FORMAT:6 ENTANGLED_ADDRESSES:78 CONF:1 7e CONF:2 0 CONF:0 0 CONF:0 0 CONF:0 0 CONF:0 BB SIZE:6
TAG:7b9 FORMAT:4 ENTANGLED_ADDRESSES:184d CONF:3 7b CONF:3 56 CONF:3 0 CONF:0 0 CONF:0 0 CONF:0 BB SIZE:1
TAG:7a8 FORMAT:3 ENTANGLED_ADDRESSES:30a7 CONF:3 0 CONF:0 0 CONF:0 0 CONF:0 0 CONF:0 0 CONF:0 BB SIZE:1
TAG:7f1 FORMAT:3 ENTANGLED_ADDRESSES:4654 CONF:3 0 CONF:0 0 CONF:0 0 CONF:0 0 CONF:0 0 CONF:0 BB SIZE:0
TAG:2a1 FORMAT:3 ENTANGLED_ADDRESSES:228c7 CONF:3 4712 CONF:3 48bf CONF:3 0 CONF:0 0 CONF:0 0 CONF:0 BB SIZE:1
TAG:a1e FORMAT:3 ENTANGLED_ADDRESSES:2408 CONF:3 0 CONF:0 0 CONF:0 0 CONF:0 0 CONF:0 0 CONF:0 BB SIZE:1
SET:28
TAG:247 FORMAT:1 ENTANGLED_ADDRESSES:0 CONF:0 0 CONF:0 0 CONF:0 0 CONF:0 0 CONF:0 0 CONF:0 BB SIZE:2
TAG:a1e FORMAT:3 ENTANGLED_ADDRESSES:e752 CONF:3 0 CONF:0 0 CONF:0 0 CONF:0 0 CONF:0 0 CONF:0 BB SIZE:1
TAG:bb6 FORMAT:3 ENTANGLED_ADDRESSES:b641 CONF:3 0 CONF:0 0 CONF:0 0 CONF:0 0 CONF:0 0 CONF:0 BB SIZE:0
TAG:2ad FORMAT:3 ENTANGLED_ADDRESSES:25867 CONF:3 2580a CONF:3 25271 CONF:2 0 CONF:0 0 CONF:0 0 CONF:0 BB SIZE:1
TAG:53 FORMAT:3 ENTANGLED_ADDRESSES:a376 CONF:3 0 CONF:0 0 CONF:0 0 CONF:0 0 CONF:0 0 CONF:0 BB SIZE:1
TAG:2b4 FORMAT:3 ENTANGLED_ADDRESSES:4bcb CONF:3 389f CONF:3 4b00 CONF:3 0 CONF:0 0 CONF:0 0 CONF:0 BB SIZE:3
TAG:359 FORMAT:3 ENTANGLED_ADDRESSES:16a17 CONF:1 0 CONF:0 0 CONF:0 0 CONF:0 0 CONF:0 0 CONF:0 BB SIZE:a
TAG:27a FORMAT:3 ENTANGLED_ADDRESSES:254b7 CONF:3 23e7e CONF:2 77b9 CONF:3 0 CONF:0 0 CONF:0 0 CONF:0 BB SIZE:3
TAG:2b6 FORMAT:4 ENTANGLED_ADDRESSES:6e1 CONF:3 b23 CONF:3 6e8 CONF:2 b3b CONF:3 0 CONF:0 0 CONF:0 BB SIZE:1
TAG:22b FORMAT:3 ENTANGLED_ADDRESSES:cf9d CONF:3 e61b CONF:3 95c9 CONF:3 0 CONF:0 0 CONF:0 0 CONF:0 BB SIZE:7
TAG:37e FORMAT:3 ENTANGLED_ADDRESSES:14544 CONF:1 0 CONF:0 0 CONF:0 0 CONF:0 0 CONF:0 0 CONF:0 BB SIZE:3
TAG:2b2 FORMAT:3 ENTANGLED_ADDRESSES:3301 CONF:3 c0f0 CONF:3 1fa8 CONF:3 0 CONF:0 0 CONF:0 0 CONF:0 BB SIZE:1
TAG:34f FORMAT:6 ENTANGLED_ADDRESSES:b2 CONF:3 8e CONF:3 0 CONF:0 0 CONF:0 0 CONF:0 0 CONF:0 BB SIZE:7
TAG:101 FORMAT:2 ENTANGLED_ADDRESSES:edce239 CONF:0 edce23e CONF:3 0 CONF:0 0 CONF:0 0 CONF:0 0 CONF:0 BB SIZE:c
TAG:3a5 FORMAT:3 ENTANGLED_ADDRESSES:8f58 CONF:3 edf CONF:3 0 CONF:0 0 CONF:0 0 CONF:0 0 CONF:0 BB SIZE:4
TAG:2a9 FORMAT:1 ENTANGLED_ADDRESSES:0 CONF:0 0 CONF:0 0 CONF:0 0 CONF:0 0 CONF:0 0 CONF:0 BB SIZE:2
SET:29
TAG:37e FORMAT:2 ENTANGLED_ADDRESSES:edff411 CONF:1 eccb752 CONF:3 b75d CONF:0 0 CONF:0 0 CONF:0 0 CONF:0 BB SIZE:5
TAG:3ee FORMAT:2 ENTANGLED_ADDRESSES:eccb780 CONF:3 edcba33 CONF:3 1533 CONF:0 0 CONF:0 0 CONF:0 0 CONF:0 BB SIZE:3
TAG:3a5 FORMAT:3 ENTANGLED_ADDRESSES:8cae CONF:3 f48 CONF:3 ed90 CONF:3 0 CONF:0 0 CONF:0 0 CONF:0 BB SIZE:f
TAG:253 FORMAT:3 ENTANGLED_ADDRESSES:f7c9 CONF:3 21f1 CONF:2 21f4 CONF:3 0 CONF:0 0 CONF:0 0 CONF:0 BB SIZE:5
TAG:ad9 FORMAT:2 ENTANGLED_ADDRESSES:edbd463 CONF:2 edbd412 CONF:2 0 CONF:0 0 CONF:0 0 CONF:0 0 CONF:0 BB SIZE:0
TAG:3ae FORMAT:3 ENTANGLED_ADDRESSES:11eb6 CONF:1 a136 CONF:3 f23c CONF:1 0 CONF:0 0 CONF:0 0 CONF:0 BB SIZE:1
TAG:348 FORMAT:3 ENTANGLED_ADDRESSES:be43 CONF:1 15477 CONF:3 14120 CONF:3 0 CONF:0 0 CONF:0 0 CONF:0 BB SIZE:5
TAG:3fe FORMAT:2 ENTANGLED_ADDRESSES:edcf644 CONF:2 edcf652 CONF:2 0 CONF:0 0 CONF:0 0 CONF:0 0 CONF:0 BB SIZE:2
TAG:389 FORMAT:2 ENTANGLED_ADDRESSES:edf7755 CONF:3 edcba2d CONF:2 0 CONF:0 0 CONF:0 0 CONF:0 0 CONF:0 BB SIZE:4
TAG:a8a FORMAT:5 ENTANGLED_ADDRESSES:5f CONF:3 64 CONF:3 62 CONF:3 0 CONF:0 0 CONF:0 0 CONF:0 BB SIZE:3
TAG:a14 FORMAT:3 ENTANGLED_ADDRESSES:da6a CONF:3 ac7f CONF:3 da67 CONF:3 0 CONF:0 0 CONF:0 0 CONF:0 BB SIZE:3
TAG:2d2 FORMAT:3 ENTANGLED_ADDRESSES:79d6 CONF:2 27766 CONF:3 fd00 CONF:3 0 CONF:0 0 CONF:0 0 CONF:0 BB SIZE:1
TAG:afc FORMAT:2 ENTANGLED_ADDRESSES:edb5c9b CONF:3 edcabc2 CONF:0 0 CONF:0 0 CONF:0 0 CONF:0 0 CONF:0 BB SIZE:1
TAG:7b9 FORMAT:3 ENTANGLED_ADDRESSES:25200 CONF:3 2407b CONF:2 23f0a CONF:3 0 CONF:0 0 CONF:0 0 CONF:0 BB SIZE:1
TAG:23b FORMAT:1 ENTANGLED_ADDRESSES:0 CONF:0 0 CONF:0 0 CONF:0 0 CONF:0 0 CONF:0 0 CONF:0 BB SIZE:4
TAG:3c4 FORMAT:1 ENTANGLED_ADDRESSES:0 CONF:0 0 CONF:0 0 CONF:0 0 CONF:0 0 CONF:0 0 CONF:0 BB SIZE:10
SET:30
TAG:2b3 FORMAT:3 ENTANGLED_ADDRESSES:1673 CONF:3 167c CONF:3 ed4d CONF:3 0 CONF:0 0 CONF:0 0 CONF:0 BB SIZE:2
TAG:2b2 FORMAT:3 ENTANGLED_ADDRESSES:f5db CONF:3 157e0 CONF:3 4e93 CONF:3 0 CONF:0 0 CONF:0 0 CONF:0 BB SIZE:2
TAG:22b FORMAT:3 ENTANGLED_ADDRESSES:a951 CONF:3 95c9 CONF:3 0 CONF:0 0 CONF:0 0 CONF:0 0 CONF:0 BB SIZE:7
TAG:7ca FORMAT:2 ENTANGLED_ADDRESSES:edd047c CONF:3 edc1ad6 CONF:2 0 CONF:0 0 CONF:0 0 CONF:0 0 CONF:0 BB SIZE:1
TAG:27a FORMAT:3 ENTANGLED_ADDRESSES:2526c CONF:2 25867 CONF:2 0 CONF:0 0 CONF:0 0 CONF:0 0 CONF:0 BB SIZE:0
TAG:2aa FORMAT:3 ENTANGLED_ADDRESSES:25830 CONF:3 0 CONF:0 0 CONF:0 0 CONF:0 0 CONF:0 0 CONF:0 BB SIZE:2
TAG:3b0 FORMAT:3 ENTANGLED_ADDRESSES:de93 CONF:2 1fa8 CONF:3 0 CONF:0 0 CONF:0 0 CONF:0 0 CONF:0 BB SIZE:1
TAG:7f1 FORMAT:3 ENTANGLED_ADDRESSES:25599 CONF:3 2559a CONF:3 0 CONF:0 0 CONF:0 0 CONF:0 0 CONF:0 BB SIZE:1
TAG:37e FORMAT:2 ENTANGLED_ADDRESSES:edf891b CONF:3 edff412 CONF:3 0 CONF:0 0 CONF:0 0 CONF:0 0 CONF:0 BB SIZE:0
TAG:66 FORMAT:3 ENTANGLED_ADDRESSES:bd19 CONF:3 cabb CONF:3 cac0 CONF:2 0 CONF:0 0 CONF:0 0 CONF:0 BB SIZE:2
TAG:2b7 FORMAT:3 ENTANGLED_ADDRESSES:4b41 CONF:3 228c6 CONF:3 4b20 CONF:3 0 CONF:0 0 CONF:0 0 CONF:0 BB SIZE:1
TAG:356 FORMAT:3 ENTANGLED_ADDRESSES:a94f CONF:3 5d75 CONF:3 12a84 CONF:2 0 CONF:0 0 CONF:0 0 CONF:0 BB SIZE:5
TAG:33f FORMAT:6 ENTANGLED_ADDRESSES:50 CONF:2 8b CONF:3 0 CONF:0 0 CONF:0 0 CONF:0 0 CONF:0 BB SIZE:4
TAG:24b FORMAT:3 ENTANGLED_ADDRESSES:1690f CONF:2 0 CONF:0 0 CONF:0 0 CONF:0 0 CONF:0 0 CONF:0 BB SIZE:9
TAG:267 FORMAT:3 ENTANGLED_ADDRESSES:3d3f CONF:3 4654 CONF:0 3b0d CONF:3 0 CONF:0 0 CONF:0 0 CONF:0 BB SIZE:2
TAG:24a FORMAT:3 ENTANGLED_ADDRESSES:fc79 CONF:3 12802 CONF:3 3b85 CONF:3 0 CONF:0 0 CONF:0 0 CONF:0 BB SIZE:e
SET:31
TAG:2b6 FORMAT:5 ENTANGLED_ADDRESSES:344 CONF:2 334 CONF:3 346 CONF:3 331 CONF:2 2f0 CONF:2 b7 CONF:0 BB SIZE:0
TAG:6e3 FORMAT:2 ENTANGLED_ADDRESSES:edc271a CONF:3 edc271b CONF:3 0 CONF:0 0 CONF:0 0 CONF:0 0 CONF:0 BB SIZE:1
TAG:3fe FORMAT:2 ENTANGLED_ADDRESSES:eccc171 CONF:3 e8e4a08 CONF:3 0 CONF:0 0 CONF:0 0 CONF:0 0 CONF:0 BB SIZE:1
TAG:2aa FORMAT:6 ENTANGLED_ADDRESSES:c6 CONF:3 8b CONF:3 c2 CONF:2 c5 CONF:2 0 CONF:0 0 CONF:0 BB SIZE:0
TAG:a89 FORMAT:6 ENTANGLED_ADDRESSES:a8 CONF:3 0 CONF:0 0 CONF:0 0 CONF:0 0 CONF:0 0 CONF:0 BB SIZE:0
TAG:2da FORMAT:3 ENTANGLED_ADDRESSES:4be1 CONF:3 8bf7 CONF:1 74ce CONF:2 0 CONF:0 0 CONF:0 0 CONF:0 BB SIZE:1
TAG:261 FORMAT:4 ENTANGLED_ADDRESSES:9c CONF:3 0 CONF:0 0 CONF:0 0 CONF:0 0 CONF:0 0 CONF:0 BB SIZE:0
TAG:6f2 FORMAT:2 ENTANGLED_ADDRESSES:edb7d8c CONF:2 edc20ca CONF:2 0 CONF:0 0 CONF:0 0 CONF:0 0 CONF:0 BB SIZE:3
TAG:329 FORMAT:3 ENTANGLED_ADDRESSES:fc34 CONF:3 0 CONF:0 0 CONF:0 0 CONF:0 0 CONF:0 0 CONF:0 BB SIZE:2
TAG:7ca FORMAT:2 ENTANGLED_ADDRESSES:edc114c CONF:3 0 CONF:0 0 CONF:0 0 CONF:0 0 CONF:0 0 CONF:0 BB SIZE:1
TAG:7a1 FORMAT:4 ENTANGLED_ADDRESSES:184a CONF:3 1866 CONF:3 1808 CONF:3 183b CONF:2 0 CONF:0 0 CONF:0 BB SIZE:1
TAG:353 FORMAT:2 ENTANGLED_ADDRESSES:e8e49c0 CONF:3 edf8900 CONF:3 0 CONF:0 0 CONF:0 0 CONF:0 0 CONF:0 BB SIZE:1
TAG:7b9 FORMAT:5 ENTANGLED_ADDRESSES:215 CONF:3 0 CONF:0 0 CONF:0 0 CONF:0 0 CONF:0 0 CONF:0 BB SIZE:0
TAG:264 FORMAT:4 ENTANGLED_ADDRESSES:1aae CONF:3 0 CONF:0 0 CONF:0 0 CONF:0 0 CONF:0 0 CONF:0 BB SIZE:1
TAG:225 FORMAT:1 ENTANGLED_ADDRESSES:0 CONF:0 0 CONF:0 0 CONF:0 0 CONF:0 0 CONF:0 0 CONF:0 BB SIZE:1
TAG:101 FORMAT:3 ENTANGLED_ADDRESSES:3dac CONF:3 eff6 CONF:3 efe5 CONF:3 0 CONF:0 0 CONF:0 0 CONF:0 BB SIZE:8
SET:32
TAG:37e FORMAT:3 ENTANGLED_ADDRESSES:2a5c CONF:3 2a64 CONF:3 0 CONF:0 0 CONF:0 0 CONF:0 0 CONF:0 BB SIZE:3
TAG:261 FORMAT:3 ENTANGLED_ADDRESSES:4ab8 CONF:1 27713 CONF:3 0 CONF:0 0 CONF:0 0 CONF:0 0 CONF:0 BB SIZE:0
TAG:253 FORMAT:1 ENTANGLED_ADDRESSES:3fffedfc6bc CONF:3 0 CONF:0 0 CONF:0 0 CONF:0 0 CONF:0 0 CONF:0 BB SIZE:2
TAG:66 FORMAT:6 ENTANGLED_ADDRESSES:cd CONF:2 0 CONF:0 0 CONF:0 0 CONF:0 0 CONF:0 0 CONF:0 BB SIZE:1
TAG:26b FORMAT:3 ENTANGLED_ADDRESSES:ecab CONF:2 ecb2 CONF:2 ecad CONF:1 0 CONF:0 0 CONF:0 0 CONF:0 BB SIZE:5
TAG:7af FORMAT:6 ENTANGLED_ADDRESSES:53 CONF:3 51 CONF:3 50 CONF:3 3a CONF:3 0 CONF:0 0 CONF:0 BB SIZE:9
TAG:3c4 FORMAT:3 ENTANGLED_ADDRESSES:76fc CONF:3 0 CONF:0 0 CONF:0 0 CONF:0 0 CONF:0 0 CONF:0 BB SIZE:1
TAG:2b6 FORMAT:1 ENTANGLED_ADDRESSES:3fffedb5ca5 CONF:3 4b34 CONF:0 4af0 CONF:0 0 CONF:0 0 CONF:0 0 CONF:0 BB SIZE:2
TAG:7ca FORMAT:2 ENTANGLED_ADDRESSES:edd048c CONF:3 edc43bc CONF:3 0 CONF:0 0 CONF:0 0 CONF:0 0 CONF:0 BB SIZE:2
TAG:2c4 FORMAT:3 ENTANGLED_ADDRESSES:8216 CONF:3 0 CONF:0 0 CONF:0 0 CONF:0 0 CONF:0 0 CONF:0 BB SIZE:0
TAG:2f5 FORMAT:3 ENTANGLED_ADDRESSES:5be0 CONF:3 5bde CONF:3 0 CONF:0 0 CONF:0 0 CONF:0 0 CONF:0 BB SIZE:1
TAG:39b FORMAT:3 ENTANGLED_ADDRESSES:2554c CONF:2 25549 CONF:3 f948 CONF:3 0 CONF:0 0 CONF:0 0 CONF:0 BB SIZE:2
TAG:26c FORMAT:3 ENTANGLED_ADDRESSES:1700 CONF:3 1f99 CONF:3 809c CONF:3 0 CONF:0 0 CONF:0 0 CONF:0 BB SIZE:3
TAG:ae7 FORMAT:2 ENTANGLED_ADDRESSES:edb6912 CONF:3 0 CONF:0 0 CONF:0 0 CONF:0 0 CONF:0 0 CONF:0 BB SIZE:0
TAG:d6 FORMAT:6 ENTANGLED_ADDRESSES:a2 CONF:2 f1 CONF:3 e1 CONF:3 0 CONF:0 0 CONF:0 0 CONF:0 BB SIZE:4
TAG:233 FORMAT:3 ENTANGLED_ADDRESSES:101ef CONF:2 a376 CONF:2 101f0 CONF:3 0 CONF:0 0 CONF:0 0 CONF:0 BB SIZE:1
SET:33
TAG:2b7 FORMAT:5 ENTANGLED_ADDRESSES:323 CONF:3 331 CONF:3 2f8 CONF:3 2f0 CONF:2 321 CONF:3 0 CONF:0 BB SIZE:3
TAG:d31 FORMAT:2 ENTANGLED_ADDRESSES:e8e49c0 CONF:3 e8e49be CONF:3 0 CONF:0 0 CONF:0 0 CONF:0 0 CONF:0 BB SIZE:0
TAG:7b9 FORMAT:4 ENTANGLED_ADDRESSES:184d CONF:3 59 CONF:3 0 CONF:0 0 CONF:0 0 CONF:0 0 CONF:0 BB SIZE:1
TAG:33e FORMAT:3 ENTANGLED_ADDRESSES:52b4 CONF:2 1f9b CONF:3 cbfd CONF:3 0 CONF:0 0 CONF:0 0 CONF:0 BB SIZE:6
TAG:c3 FORMAT:1 ENTANGLED_ADDRESSES:0 CONF:0 0 CONF:0 0 CONF:0 0 CONF:0 0 CONF:0 0 CONF:0 BB SIZE:2
TAG:222 FORMAT:3 ENTANGLED_ADDRESSES:8c8e CONF:3 87dd CONF:3 8805 CONF:0 0 CONF:0 0 CONF:0 0 CONF:0 BB SIZE:1
TAG:d92 FORMAT:1 ENTANGLED_ADDRESSES:3fffc00002020bb CONF:3 0 CONF:0 0 CONF:0 0 CONF:0 0 CONF:0 0 CONF:0 BB SIZE:3
TAG:de FORMAT:1 ENTANGLED_ADDRESSES:3fffc000020780b CONF:3 13a7 CONF:0 151e6 CONF:0 0 CONF:0 0 CONF:0 0 CONF:0 BB SIZE:b
TAG:39f FORMAT:3 ENTANGLED_ADDRESSES:2e7a CONF:3 164d6 CONF:3 164d0 CONF:2 0 CONF:0 0 CONF:0 0 CONF:0 BB SIZE:14
TAG:7a1 FORMAT:3 ENTANGLED_ADDRESSES:10155 CONF:3 25843 CONF:3 0 CONF:0 0 CONF:0 0 CONF:0 0 CONF:0 BB SIZE:1
TAG:2df FORMAT:6 ENTANGLED_ADDRESSES:a CONF:3 0 CONF:0 0 CONF:0 0 CONF:0 0 CONF:0 0 CONF:0 BB SIZE:0
TAG:296 FORMAT:3 ENTANGLED_ADDRESSES:a958 CONF:1 1f97 CONF:2 3971 CONF:1 0 CONF:0 0 CONF:0 0 CONF:0 BB SIZE:4
TAG:379 FORMAT:3 ENTANGLED_ADDRESSES:1c7a CONF:3 0 CONF:0 0 CONF:0 0 CONF:0 0 CONF:0 0 CONF:0 BB SIZE:5
TAG:a7b FORMAT:6 ENTANGLED_ADDRESSES:3d CONF:2 3c CONF:2 40 CONF:2 0 CONF:0 0 CONF:0 0 CONF:0 BB SIZE:1
TAG:e FORMAT:3 ENTANGLED_ADDRESSES:b0a8 CONF:3 b0a5 CONF:3 0 CONF:0 0 CONF:0 0 CONF:0 0 CONF:0 BB SIZE:3
TAG:fa FORMAT:3 ENTANGLED_ADDRESSES:358f CONF:3 0 CONF:0 0 CONF:0 0 CONF:0 0 CONF:0 0 CONF:0 BB SIZE:15
SET:34
TAG:2b1 FORMAT:6 ENTANGLED_ADDRESSES:ab CONF:3 0 CONF:0 0 CONF:0 0 CONF:0 0 CONF:0 0 CONF:0 BB SIZE:1
TAG:295 FORMAT:3 ENTANGLED_ADDRESSES:1f9d CONF:2 d373 CONF:3 12cce CONF:3 0 CONF:0 0 CONF:0 0 CONF:0 BB SIZE:4
TAG:22b FORMAT:3 ENTANGLED_ADDRESSES:9452 CONF:3 86fc CONF:3 0 CONF:0 0 CONF:0 0 CONF:0 0 CONF:0 BB SIZE:5
TAG:2c8 FORMAT:5 ENTANGLED_ADDRESSES:d1 CONF:3 168 CONF:3 0 CONF:0 0 CONF:0 0 CONF:0 0 CONF:0 BB SIZE:1
TAG:321 FORMAT:3 ENTANGLED_ADDRESSES:4485 CONF:1 14010 CONF:1 14011 CONF:3 0 CONF:0 0 CONF:0 0 CONF:0 BB SIZE:1
TAG:d6 FORMAT:3 ENTANGLED_ADDRESSES:154f1 CONF:2 4be1 CONF:3 0 CONF:0 0 CONF:0 0 CONF:0 0 CONF:0 BB SIZE:a
TAG:33a FORMAT:3 ENTANGLED_ADDRESSES:11550 CONF:3 0 CONF:0 0 CONF:0 0 CONF:0 0 CONF:0 0 CONF:0 BB SIZE:4
TAG:95b FORMAT:2 ENTANGLED_ADDRESSES:edc10a8 CONF:3 edbe538 CONF:3 0 CONF:0 0 CONF:0 0 CONF:0 0 CONF:0 BB SIZE:0
TAG:773 FORMAT:2 ENTANGLED_ADDRESSES:edce15a CONF:3 edbfe7d CONF:3 0 CONF:0 0 CONF:0 0 CONF:0 0 CONF:0 BB SIZE:1
TAG:3e8 FORMAT:3 ENTANGLED_ADDRESSES:15470 CONF:3 16252 CONF:1 dc33 CONF:2 0 CONF:0 0 CONF:0 0 CONF:0 BB SIZE:2
TAG:78c FORMAT:5 ENTANGLED_ADDRESSES:ce CONF:3 dc CONF:3 0 CONF:0 0 CONF:0 0 CONF:0 0 CONF:0 BB SIZE:1
TAG:26a FORMAT:4 ENTANGLED_ADDRESSES:1a82 CONF:3 1c2e CONF:3 1c37 CONF:3 1c20 CONF:3 0 CONF:0 0 CONF:0 BB SIZE:0
TAG:214 FORMAT:6 ENTANGLED_ADDRESSES:c2 CONF:2 0 CONF:0 0 CONF:0 0 CONF:0 0 CONF:0 0 CONF:0 BB SIZE:4
TAG:2c6 FORMAT:3 ENTANGLED_ADDRESSES:228d0 CONF:3 0 CONF:0 0 CONF:0 0 CONF:0 0 CONF:0 0 CONF:0 BB SIZE:1
TAG:c3 FORMAT:3 ENTANGLED_ADDRESSES:b58f CONF:3 b589 CONF:3 0 CONF:0 0 CONF:0 0 CONF:0 0 CONF:0 BB SIZE:3
TAG:3f4 FORMAT:3 ENTANGLED_ADDRESSES:ef9 CONF:3 0 CONF:0 0 CONF:0 0 CONF:0 0 CONF:0 0 CONF:0 BB SIZE:b
SET:35
TAG:e FORMAT:3 ENTANGLED_ADDRESSES:e80a CONF:2 e80e CONF:2 0 CONF:0 0 CONF:0 0 CONF:0 0 CONF:0 BB SIZE:5
TAG:d7 FORMAT:3 ENTANGLED_ADDRESSES:897a CONF:2 0 CONF:0 0 CONF:0 0 CONF:0 0 CONF:0 0 CONF:0 BB SIZE:2
TAG:12 FORMAT:3 ENTANGLED_ADDRESSES:1fa8 CONF:3 0 CONF:0 0 CONF:0 0 CONF:0 0 CONF:0 0 CONF:0 BB SIZE:0
TAG:a7b FORMAT:2 ENTANGLED_ADDRESSES:ecc2fd8 CONF:2 ecc2441 CONF:3 0 CONF:0 0 CONF:0 0 CONF:0 0 CONF:0 BB SIZE:1
TAG:767 FORMAT:3 ENTANGLED_ADDRESSES:4653 CONF:3 4718 CONF:0 0 CONF:0 0 CONF:0 0 CONF:0 0 CONF:0 BB SIZE:1
TAG:7f3 FORMAT:3 ENTANGLED_ADDRESSES:38ba CONF:3 4a84 CONF:3 88b8 CONF:2 0 CONF:0 0 CONF:0 0 CONF:0 BB SIZE:0
TAG:c3 FORMAT:1 ENTANGLED_ADDRESSES:0 CONF:0 0 CONF:0 0 CONF:0 0 CONF:0 0 CONF:0 0 CONF:0 BB SIZE:4
TAG:16 FORMAT:4 ENTANGLED_ADDRESSES:12a CONF:3 150 CONF:2 12e CONF:3 13f CONF:3 0 CONF:0 0 CONF:0 BB SIZE:5
TAG:26c FORMAT:3 ENTANGLED_ADDRESSES:bdb1 CONF:3 1fa2 CONF:3 4f8a CONF:3 0 CONF:0 0 CONF:0 0 CONF:0 BB SIZE:3
TAG:352 FORMAT:2 ENTANGLED_ADDRESSES:edd0b34 CONF:3 edd0b31 CONF:3 0 CONF:0 0 CONF:0 0 CONF:0 0 CONF:0 BB SIZE:2
TAG:d1 FORMAT:3 ENTANGLED_ADDRESSES:fd3a CONF:3 0 CONF:0 0 CONF:0 0 CONF:0 0 CONF:0 0 CONF:0 BB SIZE:d
TAG:78d FORMAT:5 ENTANGLED_ADDRESSES:203 CONF:1 20c CONF:2 0 CONF:0 0 CONF:0 0 CONF:0 0 CONF:0 BB SIZE:1
TAG:2df FORMAT:3 ENTANGLED_ADDRESSES:7043 CONF:3 256ef CONF:3 25712 CONF:3 0 CONF:0 0 CONF:0 0 CONF:0 BB SIZE:1
TAG:a89 FORMAT:6 ENTANGLED_ADDRESSES:83 CONF:3 0 CONF:0 0 CONF:0 0 CONF:0 0 CONF:0 0 CONF:0 BB SIZE:0
TAG:7b4 FORMAT:3 ENTANGLED_ADDRESSES:30b2 CONF:3 0 CONF:0 0 CONF:0 0 CONF:0 0 CONF:0 0 CONF:0 BB SIZE:2
TAG:61 FORMAT:6 ENTANGLED_ADDRESSES:dd CONF:3 e5 CONF:3 e6 CONF:3 0 CONF:0 0 CONF:0 0 CONF:0 BB SIZE:1
SET:36
TAG:320 FORMAT:2 ENTANGLED_ADDRESSES:ecc4f7a CONF:3 edd0d0c CONF:3 0 CONF:0 0 CONF:0 0 CONF:0 0 CONF:0 BB SIZE:2
TAG:a7b FORMAT:2 ENTANGLED_ADDRESSES:eccabb3 CONF:3 edcba33 CONF:3 0 CONF:0 0 CONF:0 0 CONF:0 0 CONF:0 BB SIZE:1
TAG:384 FORMAT:3 ENTANGLED_ADDRESSES:ae21 CONF:3 96d2 CONF:2 68ea CONF:3 0 CONF:0 0 CONF:0 0 CONF:0 BB SIZE:8
TAG:7b9 FORMAT:3 ENTANGLED_ADDRESSES:277ea CONF:3 25895 CONF:2 23f72 CONF:3 0 CONF:0 0 CONF:0 0 CONF:0 BB SIZE:0
TAG:d31 FORMAT:1 ENTANGLED_ADDRESSES:3fffc00002020a1 CONF:2 0 CONF:0 0 CONF:0 0 CONF:0 0 CONF:0 0 CONF:0 BB SIZE:3
TAG:767 FORMAT:3 ENTANGLED_ADDRESSES:4653 CONF:0 0 CONF:0 0 CONF:0 0 CONF:0 0 CONF:0 0 CONF:0 BB SIZE:0
TAG:225 FORMAT:3 ENTANGLED_ADDRESSES:3dc0 CONF:2 4f9c CONF:2 f43e CONF:3 0 CONF:0 0 CONF:0 0 CONF:0 BB SIZE:2
TAG:da FORMAT:3 ENTANGLED_ADDRESSES:eac CONF:1 12811 CONF:3 837e CONF:3 0 CONF:0 0 CONF:0 0 CONF:0 BB SIZE:4
TAG:61 FORMAT:3 ENTANGLED_ADDRESSES:7e20 CONF:1 0 CONF:0 0 CONF:0 0 CONF:0 0 CONF:0 0 CONF:0 BB SIZE:1
TAG:7a6 FORMAT:3 ENTANGLED_ADDRESSES:23f72 CONF:3 25467 CONF:2 23f71 CONF:3 0 CONF:0 0 CONF:0 0 CONF:0 BB SIZE:1
TAG:295 FORMAT:3 ENTANGLED_ADDRESSES:32ff CONF:3 1f97 CONF:3 0 CONF:0 0 CONF:0 0 CONF:0 0 CONF:0 BB SIZE:2
TAG:a14 FORMAT:3 ENTANGLED_ADDRESSES:ac82 CONF:2 91cc CONF:2 ac7c CONF:0 0 CONF:0 0 CONF:0 0 CONF:0 BB SIZE:1
TAG:f7 FORMAT:3 ENTANGLED_ADDRESSES:131a0 CONF:2 0 CONF:0 0 CONF:0 0 CONF:0 0 CONF:0 0 CONF:0 BB SIZE:0
TAG:3d7 FORMAT:1 ENTANGLED_ADDRESSES:0 CONF:0 0 CONF:0 0 CONF:0 0 CONF:0 0 CONF:0 0 CONF:0 BB SIZE:6
TAG:2cd FORMAT:5 ENTANGLED_ADDRESSES:1a6 CONF:3 0 CONF:0 0 CONF:0 0 CONF:0 0 CONF:0 0 CONF:0 BB SIZE:2
TAG:dfb FORMAT:2 ENTANGLED_ADDRESSES:edbd412 CONF:3 edc9209 CONF:3 0 CONF:0 0 CONF:0 0 CONF:0 0 CONF:0 BB SIZE:0
SET:37
TAG:38b FORMAT:1 ENTANGLED_ADDRESSES:0 CONF:0 0 CONF:0 0 CONF:0 0 CONF:0 0 CONF:0 0 CONF:0 BB SIZE:1
TAG:2aa FORMAT:6 ENTANGLED_ADDRESSES:85 CONF:0 88 CONF:3 8d CONF:3 c5 CONF:0 c6 CONF:0 c2 CONF:3 BB SIZE:2
TAG:33c FORMAT:3 ENTANGLED_ADDRESSES:f5db CONF:2 2ae8 CONF:2 1fa2 CONF:3 0 CONF:0 0 CONF:0 0 CONF:0 BB SIZE:1
TAG:388 FORMAT:3 ENTANGLED_ADDRESSES:f7ce CONF:2 3ea5 CONF:3 79de CONF:2 0 CONF:0 0 CONF:0 0 CONF:0 BB SIZE:3
TAG:384 FORMAT:3 ENTANGLED_ADDRESSES:96dc CONF:3 1cbb CONF:3 96ee CONF:3 0 CONF:0 0 CONF:0 0 CONF:0 BB SIZE:7
TAG:d92 FORMAT:3 ENTANGLED_ADDRESSES:3c6bc CONF:2 3c789 CONF:3 b581 CONF:2 0 CONF:0 0 CONF:0 0 CONF:0 BB SIZE:0
TAG:2b7 FORMAT:3 ENTANGLED_ADDRESSES:f94d CONF:3 4b01 CONF:3 346 CONF:0 4af0 CONF:0 3cb CONF:0 0 CONF:0 BB SIZE:0
TAG:f6 FORMAT:6 ENTANGLED_ADDRESSES:35 CONF:2 5f CONF:2 0 CONF:0 0 CONF:0 0 CONF:0 0 CONF:0 BB SIZE:5
TAG:26c FORMAT:3 ENTANGLED_ADDRESSES:4578 CONF:1 1700 CONF:3 356d CONF:2 0 CONF:0 0 CONF:0 0 CONF:0 BB SIZE:7
TAG:7a6 FORMAT:3 ENTANGLED_ADDRESSES:23f3f CONF:2 2404c CONF:3 23f40 CONF:2 0 CONF:0 0 CONF:0 0 CONF:0 BB SIZE:0
TAG:943 FORMAT:3 ENTANGLED_ADDRESSES:37269 CONF:3 0 CONF:0 0 CONF:0 0 CONF:0 0 CONF:0 0 CONF:0 BB SIZE:1
TAG:724 FORMAT:3 ENTANGLED_ADDRESSES:3cde6 CONF:3 3847d CONF:0 35cc3 CONF:3 0 CONF:0 0 CONF:0 0 CONF:0 BB SIZE:2
TAG:94c FORMAT:3 ENTANGLED_ADDRESSES:bbfa CONF:3 10216 CONF:1 10b34 CONF:3 0 CONF:0 0 CONF:0 0 CONF:0 BB SIZE:1
TAG:354 FORMAT:3 ENTANGLED_ADDRESSES:b581 CONF:2 3329 CONF:3 0 CONF:0 0 CONF:0 0 CONF:0 0 CONF:0 BB SIZE:1
TAG:3b0 FORMAT:3 ENTANGLED_ADDRESSES:9a7e CONF:2 feb0 CONF:3 feb7 CONF:3 0 CONF:0 0 CONF:0 0 CONF:0 BB SIZE:5
TAG:33a FORMAT:1 ENTANGLED_ADDRESSES:0 CONF:0 0 CONF:0 0 CONF:0 0 CONF:0 0 CONF:0 0 CONF:0 BB SIZE:b
SET:38
TAG:b48 FORMAT:3 ENTANGLED_ADDRESSES:10d63 CONF:3 0 CONF:0 0 CONF:0 0 CONF:0 0 CONF:0 0 CONF:0 BB SIZE:2
TAG:d93 FORMAT:2 ENTANGLED_ADDRESSES:eccb645 CONF:2 0 CONF:0 0 CONF:0 0 CONF:0 0 CONF:0 0 CONF:0 BB SIZE:1
TAG:740 FORMAT:3 ENTANGLED_ADDRESSES:25969 CONF:3 25444 CONF:2 0 CONF:0 0 CONF:0 0 CONF:0 0 CONF:0 BB SIZE:2
TAG:61 FORMAT:6 ENTANGLED_ADDRESSES:b7 CONF:2 0 CONF:0 0 CONF:0 0 CONF:0 0 CONF:0 0 CONF:0 BB SIZE:1
TAG:286 FORMAT:3 ENTANGLED_ADDRESSES:3a43 CONF:3 3a7e CONF:3 0 CONF:0 0 CONF:0 0 CONF:0 0 CONF:0 BB SIZE:1
TAG:295 FORMAT:3 ENTANGLED_ADDRESSES:a376 CONF:3 a741 CONF:3 620c CONF:3 0 CONF:0 0 CONF:0 0 CONF:0 BB SIZE:3
TAG:7f3 FORMAT:3 ENTANGLED_ADDRESSES:4700 CONF:3 46ee CONF:2 fa27 CONF:3 0 CONF:0 0 CONF:0 0 CONF:0 BB SIZE:2
TAG:a3 FORMAT:2 ENTANGLED_ADDRESSES:edcba33 CONF:3 ecd62bc CONF:3 0 CONF:0 0 CONF:0 0 CONF:0 0 CONF:0 BB SIZE:12
TAG:32e FORMAT:2 ENTANGLED_ADDRESSES:edbfab0 CONF:3 edb5ca9 CONF:3 0 CONF:0 0 CONF:0 0 CONF:0 0 CONF:0 BB SIZE:2
TAG:3fe FORMAT:2 ENTANGLED_ADDRESSES:edff413 CONF:3 0 CONF:0 0 CONF:0 0 CONF:0 0 CONF:0 0 CONF:0 BB SIZE:1
TAG:38b FORMAT:3 ENTANGLED_ADDRESSES:3a7e CONF:3 4a84 CONF:3 228c6 CONF:3 0 CONF:0 0 CONF:0 0 CONF:0 BB SIZE:2
TAG:106 FORMAT:3 ENTANGLED_ADDRESSES:8bf7 CONF:3 18c5b CONF:3 8be8 CONF:3 0 CONF:0 0 CONF:0 0 CONF:0 BB SIZE:3
TAG:7a6 FORMAT:3 ENTANGLED_ADDRESSES:256a1 CONF:3 23f3f CONF:3 0 CONF:0 0 CONF:0 0 CONF:0 0 CONF:0 BB SIZE:0
TAG:268 FORMAT:3 ENTANGLED_ADDRESSES:3b35 CONF:1 3b0d CONF:3 f9f6 CONF:3 0 CONF:0 0 CONF:0 0 CONF:0 BB SIZE:3
TAG:be8 FORMAT:5 ENTANGLED_ADDRESSES:170 CONF:3 14c CONF:3 0 CONF:0 0 CONF:0 0 CONF:0 0 CONF:0 BB SIZE:1
TAG:30f FORMAT:3 ENTANGLED_ADDRESSES:cb3a CONF:1 674 CONF:3 0 CONF:0 0 CONF:0 0 CONF:0 0 CONF:0 BB SIZE:0
SET:39
TAG:257 FORMAT:3 ENTANGLED_ADDRESSES:3726 CONF:3 4856 CONF:3 0 CONF:0 0 CONF:0 0 CONF:0 0 CONF:0 BB SIZE:3
TAG:943 FORMAT:3 ENTANGLED_ADDRESSES:37266 CONF:3 10216 CONF:0 bbf7 CONF:1 0 CONF:0 0 CONF:0 0 CONF:0 BB SIZE:0
TAG:32e FORMAT:2 ENTANGLED_ADDRESSES:e8e4a08 CONF:3 e8e4986 CONF:3 0 CONF:0 0 CONF:0 0 CONF:0 0 CONF:0 BB SIZE:1
TAG:7ec FORMAT:2 ENTANGLED_ADDRESSES:edcabed CONF:2 0 CONF:0 0 CONF:0 0 CONF:0 0 CONF:0 0 CONF:0 BB SIZE:3
TAG:a7b FORMAT:2 ENTANGLED_ADDRESSES:eccaba1 CONF:3 0 CONF:0 0 CONF:0 0 CONF:0 0 CONF:0 0 CONF:0 BB SIZE:4
TAG:787 FORMAT:4 ENTANGLED_ADDRESSES:1835 CONF:2 0 CONF:0 0 CONF:0 0 CONF:0 0 CONF:0 0 CONF:0 BB SIZE:1
TAG:cb FORMAT:6 ENTANGLED_ADDRESSES:40 CONF:3 0 CONF:0 0 CONF:0 0 CONF:0 0 CONF:0 0 CONF:0 BB SIZE:19
TAG:2bc FORMAT:3 ENTANGLED_ADDRESSES:11cf0 CONF:3 11cf5 CONF:2 0 CONF:0 0 CONF:0 0 CONF:0 0 CONF:0 BB SIZE:2
TAG:784 FORMAT:4 ENTANGLED_ADDRESSES:14ad CONF:3 0 CONF:0 0 CONF:0 0 CONF:0 0 CONF:0 0 CONF:0 BB SIZE:2
TAG:268 FORMAT:6 ENTANGLED_ADDRESSES:d CONF:3 0 CONF:0 0 CONF:0 0 CONF:0 0 CONF:0 0 CONF:0 BB SIZE:0
TAG:7f3 FORMAT:3 ENTANGLED_ADDRESSES:244d4 CONF:0 4bc4 CONF:3 276fa CONF:3 0 CONF:0 0 CONF:0 0 CONF:0 BB SIZE:1
TAG:29d FORMAT:3 ENTANGLED_ADDRESSES:769e CONF:2 0 CONF:0 0 CONF:0 0 CONF:0 0 CONF:0 0 CONF:0 BB SIZE:4
TAG:384 FORMAT:3 ENTANGLED_ADDRESSES:b4ea CONF:3 0 CONF:0 0 CONF:0 0 CONF:0 0 CONF:0 0 CONF:0 BB SIZE:2
TAG:26e FORMAT:3 ENTANGLED_ADDRESSES:13b72 CONF:2 0 CONF:0 0 CONF:0 0 CONF:0 0 CONF:0 0 CONF:0 BB SIZE:0
TAG:363 FORMAT:3 ENTANGLED_ADDRESSES:13d66 CONF:3 0 CONF:0 0 CONF:0 0 CONF:0 0 CONF:0 0 CONF:0 BB SIZE:3
TAG:33c FORMAT:3 ENTANGLED_ADDRESSES:9bb7 CONF:3 2ae8 CONF:2 bde3 CONF:3 0 CONF:0 0 CONF:0 0 CONF:0 BB SIZE:3
SET:40
TAG:379 FORMAT:3 ENTANGLED_ADDRESSES:100ba CONF:3 e373 CONF:3 0 CONF:0 0 CONF:0 0 CONF:0 0 CONF:0 BB SIZE:6
TAG:353 FORMAT:2 ENTANGLED_ADDRESSES:eccd7db CONF:3 edfc611 CONF:3 0 CONF:0 0 CONF:0 0 CONF:0 0 CONF:0 BB SIZE:0
TAG:71 FORMAT:6 ENTANGLED_ADDRESSES:73 CONF:0 9e CONF:3 61 CONF:3 77 CONF:3 0 CONF:0 0 CONF:0 BB SIZE:5
TAG:32a FORMAT:3 ENTANGLED_ADDRESSES:be43 CONF:2 0 CONF:0 0 CONF:0 0 CONF:0 0 CONF:0 0 CONF:0 BB SIZE:2
TAG:adf FORMAT:2 ENTANGLED_ADDRESSES:edbcce0 CONF:3 edcfbea CONF:3 0 CONF:0 0 CONF:0 0 CONF:0 0 CONF:0 BB SIZE:1
TAG:a08 FORMAT:3 ENTANGLED_ADDRESSES:7628 CONF:3 1ad6 CONF:3 0 CONF:0 0 CONF:0 0 CONF:0 0 CONF:0 BB SIZE:2
TAG:384 FORMAT:3 ENTANGLED_ADDRESSES:8f55 CONF:3 4950 CONF:3 db1c CONF:3 0 CONF:0 0 CONF:0 0 CONF:0 BB SIZE:a
TAG:e8 FORMAT:3 ENTANGLED_ADDRESSES:14d12 CONF:1 a958 CONF:3 6f0f CONF:3 0 CONF:0 0 CONF:0 0 CONF:0 BB SIZE:2
TAG:3f5 FORMAT:3 ENTANGLED_ADDRESSES:4880 CONF:3 356d CONF:0 1f9e CONF:3 0 CONF:0 0 CONF:0 0 CONF:0 BB SIZE:1
TAG:d1 FORMAT:3 ENTANGLED_ADDRESSES:113ad CONF:3 157f2 CONF:3 fd3a CONF:3 0 CONF:0 0 CONF:0 0 CONF:0 BB SIZE:11
TAG:2aa FORMAT:3 ENTANGLED_ADDRESSES:256e3 CONF:3 277e2 CONF:3 25898 CONF:3 0 CONF:0 0 CONF:0 0 CONF:0 BB SIZE:3
TAG:7a2 FORMAT:3 ENTANGLED_ADDRESSES:482c CONF:1 25601 CONF:3 25603 CONF:3 0 CONF:0 0 CONF:0 0 CONF:0 BB SIZE:1
TAG:61 FORMAT:3 ENTANGLED_ADDRESSES:6a63 CONF:2 13471 CONF:2 0 CONF:0 0 CONF:0 0 CONF:0 0 CONF:0 BB SIZE:d
TAG:226 FORMAT:3 ENTANGLED_ADDRESSES:5347 CONF:3 5a30 CONF:3 9668 CONF:3 0 CONF:0 0 CONF:0 0 CONF:0 BB SIZE:d
TAG:386 FORMAT:1 ENTANGLED_ADDRESSES:0 CONF:0 0 CONF:0 0 CONF:0 0 CONF:0 0 CONF:0 0 CONF:0 BB SIZE:1
TAG:94c FORMAT:3 ENTANGLED_ADDRESSES:377f CONF:3 43bc CONF:2 bbf7 CONF:3 0 CONF:0 0 CONF:0 0 CONF:0 BB SIZE:3
SET:41
TAG:379 FORMAT:3 ENTANGLED_ADDRESSES:5347 CONF:3 0 CONF:0 0 CONF:0 0 CONF:0 0 CONF:0 0 CONF:0 BB SIZE:1
TAG:38b FORMAT:6 ENTANGLED_ADDRESSES:e CONF:3 0 CONF:0 0 CONF:0 0 CONF:0 0 CONF:0 0 CONF:0 BB SIZE:0
TAG:373 FORMAT:3 ENTANGLED_ADDRESSES:c20d CONF:2 c211 CONF:3 c214 CONF:3 0 CONF:0 0 CONF:0 0 CONF:0 BB SIZE:1
TAG:227 FORMAT:3 ENTANGLED_ADDRESSES:9646 CONF:3 13471 CONF:2 13475 CONF:2 0 CONF:0 0 CONF:0 0 CONF:0 BB SIZE:5
TAG:2b7 FORMAT:3 ENTANGLED_ADDRESSES:4b43 CONF:0 f94e CONF:3 4b1f CONF:3 6e2 CONF:0 0 CONF:0 0 CONF:0 BB SIZE:1
TAG:a7d FORMAT:2 ENTANGLED_ADDRESSES:edbfd80 CONF:3 0 CONF:0 0 CONF:0 0 CONF:0 0 CONF:0 0 CONF:0 BB SIZE:1
TAG:94e FORMAT:2 ENTANGLED_ADDRESSES:edd0b47 CONF:3 edb5cc5 CONF:3 10b33 CONF:0 0 CONF:0 0 CONF:0 0 CONF:0 BB SIZE:1
TAG:3cc FORMAT:3 ENTANGLED_ADDRESSES:18f37 CONF:1 18f24 CONF:0 0 CONF:0 0 CONF:0 0 CONF:0 0 CONF:0 BB SIZE:1
TAG:a70 FORMAT:2 ENTANGLED_ADDRESSES:edbd687 CONF:3 edbc9f7 CONF:3 0 CONF:0 0 CONF:0 0 CONF:0 0 CONF:0 BB SIZE:1
TAG:3a8 FORMAT:3 ENTANGLED_ADDRESSES:9602 CONF:1 13b45 CONF:1 1625e CONF:2 0 CONF:0 0 CONF:0 0 CONF:0 BB SIZE:6
TAG:271 FORMAT:6 ENTANGLED_ADDRESSES:e5 CONF:2 0 CONF:0 0 CONF:0 0 CONF:0 0 CONF:0 0 CONF:0 BB SIZE:3
TAG:7a5 FORMAT:4 ENTANGLED_ADDRESSES:155a CONF:3 1545 CONF:3 1897 CONF:3 185c CONF:3 0 CONF:0 0 CONF:0 BB SIZE:2
TAG:b98 FORMAT:3 ENTANGLED_ADDRESSES:24df CONF:3 807e CONF:3 8080 CONF:2 0 CONF:0 0 CONF:0 0 CONF:0 BB SIZE:2
TAG:268 FORMAT:6 ENTANGLED_ADDRESSES:f CONF:3 0 CONF:0 0 CONF:0 0 CONF:0 0 CONF:0 0 CONF:0 BB SIZE:0
TAG:a8a FORMAT:6 ENTANGLED_ADDRESSES:80 CONF:1 4 CONF:3 0 CONF:0 0 CONF:0 0 CONF:0 0 CONF:0 BB SIZE:2
TAG:37d FORMAT:1 ENTANGLED_ADDRESSES:0 CONF:0 0 CONF:0 0 CONF:0 0 CONF:0 0 CONF:0 0 CONF:0 BB SIZE:1
SET:42
TAG:afc FORMAT:6 ENTANGLED_ADDRESSES:1c CONF:3 0 CONF:0 0 CONF:0 0 CONF:0 0 CONF:0 0 CONF:0 BB SIZE:0
TAG:379 FORMAT:3 ENTANGLED_ADDRESSES:d8f4 CONF:3 0 CONF:0 0 CONF:0 0 CONF:0 0 CONF:0 0 CONF:0 BB SIZE:2
TAG:269 FORMAT:6 ENTANGLED_ADDRESSES:5e CONF:3 64 CONF:3 0 CONF:0 0 CONF:0 0 CONF:0 0 CONF:0 BB SIZE:1
TAG:32e FORMAT:3 ENTANGLED_ADDRESSES:52b4 CONF:2 0 CONF:0 0 CONF:0 0 CONF:0 0 CONF:0 0 CONF:0 BB SIZE:6
TAG:3a0 FORMAT:3 ENTANGLED_ADDRESSES:ed5 CONF:3 0 CONF:0 0 CONF:0 0 CONF:0 0 CONF:0 0 CONF:0 BB SIZE:1
TAG:a7d FORMAT:2 ENTANGLED_ADDRESSES:edba6dd CONF:3 edba6de CONF:3 0 CONF:0 0 CONF:0 0 CONF:0 0 CONF:0 BB SIZE:1
TAG:fa FORMAT:3 ENTANGLED_ADDRESSES:a6c2 CONF:1 f0a3 CONF:3 f09c CONF:3 0 CONF:0 0 CONF:0 0 CONF:0 BB SIZE:4
TAG:384 FORMAT:3 ENTANGLED_ADDRESSES:4955 CONF:0 4952 CONF:3 0 CONF:0 0 CONF:0 0 CONF:0 0 CONF:0 BB SIZE:3
TAG:2b7 FORMAT:4 ENTANGLED_ADDRESSES:b43 CONF:0 6e2 CONF:3 6f4 CONF:2 0 CONF:0 0 CONF:0 0 CONF:0 BB SIZE:0
TAG:35c FORMAT:1 ENTANGLED_ADDRESSES:0 CONF:0 0 CONF:0 0 CONF:0 0 CONF:0 0 CONF:0 0 CONF:0 BB SIZE:1
TAG:fc FORMAT:3 ENTANGLED_ADDRESSES:e01b CONF:3 e022 CONF:3 0 CONF:0 0 CONF:0 0 CONF:0 0 CONF:0 BB SIZE:1
TAG:ae FORMAT:3 ENTANGLED_ADDRESSES:89b5 CONF:3 89b6 CONF:3 0 CONF:0 0 CONF:0 0 CONF:0 0 CONF:0 BB SIZE:6
TAG:94e FORMAT:3 ENTANGLED_ADDRESSES:10c5d CONF:1 bc0d CONF:2 10b33 CONF:1 0 CONF:0 0 CONF:0 0 CONF:0 BB SIZE:0
TAG:376 FORMAT:3 ENTANGLED_ADDRESSES:e55b CONF:3 1f9b CONF:3 27a7 CONF:2 0 CONF:0 0 CONF:0 0 CONF:0 BB SIZE:6
TAG:7f3 FORMAT:3 ENTANGLED_ADDRESSES:23e80 CONF:3 25f1f CONF:2 776e CONF:2 0 CONF:0 0 CONF:0 0 CONF:0 BB SIZE:1
TAG:30e FORMAT:3 ENTANGLED_ADDRESSES:1f99 CONF:1 809c CONF:1 11e9d CONF:3 0 CONF:0 0 CONF:0 0 CONF:0 BB SIZE:7
SET:43
TAG:a89 FORMAT:2 ENTANGLED_ADDRESSES:edba6bc CONF:3 0 CONF:0 0 CONF:0 0 CONF:0 0 CONF:0 0 CONF:0 BB SIZE:2
[...]
TAG:3ee FORMAT:3 ENTANGLED_ADDRESSES:10356 CONF:2 0 CONF:0 0 CONF:0 0 CONF:0 0 CONF:0 0 CONF:0 BB SIZE:1
TAG:2eb FORMAT:3 ENTANGLED_ADDRESSES:6de6 CONF:0 f948 CONF:2 0 CONF:0 0 CONF:0 0 CONF:0 0 CONF:0 BB SIZE:1
TAG:a15 FORMAT:2 ENTANGLED_ADDRESSES:edb7d9a CONF:3 0 CONF:0 0 CONF:0 0 CONF:0 0 CONF:0 0 CONF:0 BB SIZE:1
SET:118
TAG:250 FORMAT:1 ENTANGLED_ADDRESSES:3fffedfc80e CONF:3 1f1 CONF:0 0 CONF:0 0 CONF:0 0 CONF:0 0 CONF:0 BB SIZE:1
TAG:2ab FORMAT:3 ENTANGLED_ADDRESSES:8844 CONF:3 277e4 CONF:3 88b3 CONF:3 0 CONF:0 0 CONF:0 0 CONF:0 BB SIZE:1
TAG:29f FORMAT:2 ENTANGLED_ADDRESSES:edd0b34 CONF:2 edc377e CONF:2 0 CONF:0 0 CONF:0 0 CONF:0 0 CONF:0 BB SIZE:1
TAG:3cb FORMAT:3 ENTANGLED_ADDRESSES:16958 CONF:3 8f52 CONF:3 0 CONF:0 0 CONF:0 0 CONF:0 0 CONF:0 BB SIZE:1a
TAG:3b1 FORMAT:6 ENTANGLED_ADDRESSES:85 CONF:3 0 CONF:0 0 CONF:0 0 CONF:0 0 CONF:0 0 CONF:0 BB SIZE:2
TAG:38 FORMAT:3 ENTANGLED_ADDRESSES:c3b9 CONF:2 5424 CONF:2 542e CONF:2 0 CONF:0 0 CONF:0 0 CONF:0 BB SIZE:4
TAG:20b FORMAT:3 ENTANGLED_ADDRESSES:a3ab CONF:3 5c14 CONF:3 16252 CONF:3 0 CONF:0 0 CONF:0 0 CONF:0 BB SIZE:3
TAG:23b FORMAT:2 ENTANGLED_ADDRESSES:ecc145e CONF:3 edcde6b CONF:3 0 CONF:0 0 CONF:0 0 CONF:0 0 CONF:0 BB SIZE:1
TAG:305 FORMAT:3 ENTANGLED_ADDRESSES:4671 CONF:3 3ad1 CONF:2 d060 CONF:3 0 CONF:0 0 CONF:0 0 CONF:0 BB SIZE:2
TAG:30c FORMAT:3 ENTANGLED_ADDRESSES:57ac CONF:3 907c CONF:3 f4cf CONF:3 0 CONF:0 0 CONF:0 0 CONF:0 BB SIZE:1
TAG:32c FORMAT:3 ENTANGLED_ADDRESSES:c074 CONF:2 c076 CONF:3 e87c CONF:3 0 CONF:0 0 CONF:0 0 CONF:0 BB SIZE:8
TAG:7b8 FORMAT:6 ENTANGLED_ADDRESSES:5c CONF:3 62 CONF:2 7c CONF:3 66 CONF:3 0 CONF:0 0 CONF:0 BB SIZE:1
TAG:7a8 FORMAT:5 ENTANGLED_ADDRESSES:27b CONF:3 27e CONF:3 15 CONF:1 270 CONF:3 0 CONF:0 0 CONF:0 BB SIZE:2
TAG:b93 FORMAT:2 ENTANGLED_ADDRESSES:edbd385 CONF:3 e1d0 CONF:0 edcac8a CONF:3 0 CONF:0 0 CONF:0 0 CONF:0 BB SIZE:1
TAG:386 FORMAT:3 ENTANGLED_ADDRESSES:52b4 CONF:3 1e8e CONF:3 0 CONF:0 0 CONF:0 0 CONF:0 0 CONF:0 BB SIZE:1
TAG:ae1 FORMAT:3 ENTANGLED_ADDRESSES:3c6bb CONF:3 0 CONF:0 0 CONF:0 0 CONF:0 0 CONF:0 0 CONF:0 BB SIZE:2
SET:119
TAG:b93 FORMAT:2 ENTANGLED_ADDRESSES:edb7d95 CONF:3 edb7d97 CONF:3 0 CONF:0 0 CONF:0 0 CONF:0 0 CONF:0 BB SIZE:1
TAG:3a7 FORMAT:3 ENTANGLED_ADDRESSES:93a3 CONF:3 cea CONF:0 0 CONF:0 0 CONF:0 0 CONF:0 0 CONF:0 BB SIZE:2
TAG:385 FORMAT:3 ENTANGLED_ADDRESSES:4482 CONF:3 0 CONF:0 0 CONF:0 0 CONF:0 0 CONF:0 0 CONF:0 BB SIZE:3
TAG:31e FORMAT:3 ENTANGLED_ADDRESSES:146d3 CONF:1 146d1 CONF:3 0 CONF:0 0 CONF:0 0 CONF:0 0 CONF:0 BB SIZE:8
TAG:7a8 FORMAT:6 ENTANGLED_ADDRESSES:68 CONF:3 65 CONF:3 0 CONF:0 0 CONF:0 0 CONF:0 0 CONF:0 BB SIZE:1
TAG:6a2 FORMAT:2 ENTANGLED_ADDRESSES:edb5ca0 CONF:3 edfc73d CONF:2 0 CONF:0 0 CONF:0 0 CONF:0 0 CONF:0 BB SIZE:0
TAG:241 FORMAT:3 ENTANGLED_ADDRESSES:d5ae CONF:3 d5ad CONF:3 d051 CONF:3 0 CONF:0 0 CONF:0 0 CONF:0 BB SIZE:9
TAG:cf FORMAT:3 ENTANGLED_ADDRESSES:6ac1 CONF:3 0 CONF:0 0 CONF:0 0 CONF:0 0 CONF:0 0 CONF:0 BB SIZE:7
TAG:2aa FORMAT:3 ENTANGLED_ADDRESSES:483c CONF:3 228cd CONF:3 49f3 CONF:2 0 CONF:0 0 CONF:0 0 CONF:0 BB SIZE:1
TAG:250 FORMAT:3 ENTANGLED_ADDRESSES:21f2 CONF:3 2130 CONF:3 588f CONF:3 0 CONF:0 0 CONF:0 0 CONF:0 BB SIZE:1
TAG:261 FORMAT:4 ENTANGLED_ADDRESSES:18fe CONF:2 18f6 CONF:0 18c5 CONF:3 18f9 CONF:3 0 CONF:0 0 CONF:0 BB SIZE:1
TAG:26b FORMAT:4 ENTANGLED_ADDRESSES:1ab0 CONF:2 1b62 CONF:2 1ab0 CONF:0 1c4b CONF:3 0 CONF:0 0 CONF:0 BB SIZE:3
TAG:2cd FORMAT:2 ENTANGLED_ADDRESSES:edb5cab CONF:3 efe3 CONF:0 ecc3dab CONF:3 0 CONF:0 0 CONF:0 0 CONF:0 BB SIZE:2
TAG:7b8 FORMAT:3 ENTANGLED_ADDRESSES:23f72 CONF:0 25862 CONF:3 257f4 CONF:3 0 CONF:0 0 CONF:0 0 CONF:0 BB SIZE:1
TAG:366 FORMAT:3 ENTANGLED_ADDRESSES:7a90 CONF:3 cb2a CONF:2 510 CONF:3 0 CONF:0 0 CONF:0 0 CONF:0 BB SIZE:1
TAG:ae1 FORMAT:2 ENTANGLED_ADDRESSES:edfc7fb CONF:2 edb5caa CONF:0 0 CONF:0 0 CONF:0 0 CONF:0 0 CONF:0 BB SIZE:1
SET:120
TAG:7d0 FORMAT:3 ENTANGLED_ADDRESSES:2558b CONF:3 255af CONF:3 25912 CONF:3 0 CONF:0 0 CONF:0 0 CONF:0 BB SIZE:0
TAG:2f5 FORMAT:6 ENTANGLED_ADDRESSES:84 CONF:3 0 CONF:0 0 CONF:0 0 CONF:0 0 CONF:0 0 CONF:0 BB SIZE:1
TAG:ae2 FORMAT:3 ENTANGLED_ADDRESSES:3f40c CONF:3 37755 CONF:2 ba33 CONF:2 0 CONF:0 0 CONF:0 0 CONF:0 BB SIZE:1
TAG:211 FORMAT:1 ENTANGLED_ADDRESSES:0 CONF:0 0 CONF:0 0 CONF:0 0 CONF:0 0 CONF:0 0 CONF:0 BB SIZE:5
TAG:2aa FORMAT:3 ENTANGLED_ADDRESSES:459c CONF:3 276fe CONF:3 276f0 CONF:2 0 CONF:0 0 CONF:0 0 CONF:0 BB SIZE:0
TAG:7a7 FORMAT:3 ENTANGLED_ADDRESSES:25969 CONF:2 7834 CONF:3 0 CONF:0 0 CONF:0 0 CONF:0 0 CONF:0 BB SIZE:6
TAG:41 FORMAT:3 ENTANGLED_ADDRESSES:7f66 CONF:1 ed4d CONF:3 0 CONF:0 0 CONF:0 0 CONF:0 0 CONF:0 BB SIZE:3
TAG:f7 FORMAT:4 ENTANGLED_ADDRESSES:147a CONF:3 0 CONF:0 0 CONF:0 0 CONF:0 0 CONF:0 0 CONF:0 BB SIZE:0
TAG:235 FORMAT:2 ENTANGLED_ADDRESSES:edc7628 CONF:3 edcde6e CONF:3 145e CONF:0 0 CONF:0 0 CONF:0 0 CONF:0 BB SIZE:9
TAG:364 FORMAT:3 ENTANGLED_ADDRESSES:1fa8 CONF:3 7ae5 CONF:3 c9cc CONF:3 0 CONF:0 0 CONF:0 0 CONF:0 BB SIZE:7
TAG:226 FORMAT:2 ENTANGLED_ADDRESSES:eccc59b CONF:3 e8e4a5a CONF:3 0 CONF:0 0 CONF:0 0 CONF:0 0 CONF:0 BB SIZE:1
TAG:ae1 FORMAT:4 ENTANGLED_ADDRESSES:1580 CONF:3 1621 CONF:3 1620 CONF:3 161d CONF:3 0 CONF:0 0 CONF:0 BB SIZE:1
TAG:7a5 FORMAT:4 ENTANGLED_ADDRESSES:145b CONF:2 1540 CONF:2 129 CONF:3 0 CONF:0 0 CONF:0 0 CONF:0 BB SIZE:0
TAG:7f1 FORMAT:3 ENTANGLED_ADDRESSES:212c CONF:3 588f CONF:3 24a9 CONF:3 0 CONF:0 0 CONF:0 0 CONF:0 BB SIZE:1
TAG:23f FORMAT:3 ENTANGLED_ADDRESSES:ce3 CONF:3 0 CONF:0 0 CONF:0 0 CONF:0 0 CONF:0 0 CONF:0 BB SIZE:1
TAG:2cf FORMAT:5 ENTANGLED_ADDRESSES:128 CONF:3 f3 CONF:3 f9 CONF:1 12d CONF:2 0 CONF:0 0 CONF:0 BB SIZE:1
SET:121
TAG:3cb FORMAT:3 ENTANGLED_ADDRESSES:ef9 CONF:3 0 CONF:0 0 CONF:0 0 CONF:0 0 CONF:0 0 CONF:0 BB SIZE:d
TAG:2e4 FORMAT:3 ENTANGLED_ADDRESSES:da29 CONF:3 ed4d CONF:2 1673 CONF:3 0 CONF:0 0 CONF:0 0 CONF:0 BB SIZE:7
TAG:727 FORMAT:2 ENTANGLED_ADDRESSES:edc8067 CONF:3 edbb194 CONF:3 0 CONF:0 0 CONF:0 0 CONF:0 0 CONF:0 BB SIZE:1
TAG:2cb FORMAT:1 ENTANGLED_ADDRESSES:3fffedf8901 CONF:3 ecc0588 CONF:0 276f0 CONF:0 0 CONF:0 0 CONF:0 0 CONF:0 BB SIZE:1
TAG:dbc FORMAT:3 ENTANGLED_ADDRESSES:920b CONF:3 0 CONF:0 0 CONF:0 0 CONF:0 0 CONF:0 0 CONF:0 BB SIZE:4
TAG:2a9 FORMAT:3 ENTANGLED_ADDRESSES:fa27 CONF:2 0 CONF:0 0 CONF:0 0 CONF:0 0 CONF:0 0 CONF:0 BB SIZE:1
TAG:7bb FORMAT:3 ENTANGLED_ADDRESSES:709b CONF:1 240d2 CONF:0 0 CONF:0 0 CONF:0 0 CONF:0 0 CONF:0 BB SIZE:0
TAG:7a5 FORMAT:5 ENTANGLED_ADDRESSES:5b CONF:3 5d CONF:3 140 CONF:3 0 CONF:0 0 CONF:0 0 CONF:0 BB SIZE:2
TAG:7f1 FORMAT:3 ENTANGLED_ADDRESSES:212e CONF:3 214a CONF:3 212c CONF:3 0 CONF:0 0 CONF:0 0 CONF:0 BB SIZE:3
TAG:2df FORMAT:3 ENTANGLED_ADDRESSES:25516 CONF:3 25519 CONF:2 240d4 CONF:3 0 CONF:0 0 CONF:0 0 CONF:0 BB SIZE:4
TAG:53 FORMAT:3 ENTANGLED_ADDRESSES:24624 CONF:3 30b1 CONF:3 0 CONF:0 0 CONF:0 0 CONF:0 0 CONF:0 BB SIZE:0
TAG:e0 FORMAT:1 ENTANGLED_ADDRESSES:0 CONF:0 0 CONF:0 0 CONF:0 0 CONF:0 0 CONF:0 0 CONF:0 BB SIZE:2
TAG:31b FORMAT:1 ENTANGLED_ADDRESSES:3fffc00002020b0 CONF:2 dc2b CONF:0 f12 CONF:0 0 CONF:0 0 CONF:0 0 CONF:0 BB SIZE:5
TAG:305 FORMAT:3 ENTANGLED_ADDRESSES:167d CONF:1 167a CONF:3 0 CONF:0 0 CONF:0 0 CONF:0 0 CONF:0 BB SIZE:1
TAG:268 FORMAT:5 ENTANGLED_ADDRESSES:366 CONF:2 c3 CONF:3 0 CONF:0 0 CONF:0 0 CONF:0 0 CONF:0 BB SIZE:4
TAG:310 FORMAT:3 ENTANGLED_ADDRESSES:15bf3 CONF:3 0 CONF:0 0 CONF:0 0 CONF:0 0 CONF:0 0 CONF:0 BB SIZE:c
SET:122
TAG:a8b FORMAT:3 ENTANGLED_ADDRESSES:10b47 CONF:3 10b44 CONF:3 10b46 CONF:3 0 CONF:0 0 CONF:0 0 CONF:0 BB SIZE:1
TAG:7f1 FORMAT:3 ENTANGLED_ADDRESSES:3d3a CONF:2 3e89 CONF:0 3e8e CONF:0 0 CONF:0 0 CONF:0 0 CONF:0 BB SIZE:1
TAG:2ac FORMAT:3 ENTANGLED_ADDRESSES:2139 CONF:2 0 CONF:0 0 CONF:0 0 CONF:0 0 CONF:0 0 CONF:0 BB SIZE:1
TAG:261 FORMAT:3 ENTANGLED_ADDRESSES:3ea9 CONF:0 3eb4 CONF:3 7c25 CONF:3 18f6 CONF:0 0 CONF:0 0 CONF:0 BB SIZE:3
TAG:2b6 FORMAT:6 ENTANGLED_ADDRESSES:a8 CONF:3 46 CONF:0 31 CONF:3 b6 CONF:2 ac CONF:0 46 CONF:0 BB SIZE:1
TAG:0 FORMAT:3 ENTANGLED_ADDRESSES:579c CONF:3 5791 CONF:3 0 CONF:0 0 CONF:0 0 CONF:0 0 CONF:0 BB SIZE:1
TAG:209 FORMAT:4 ENTANGLED_ADDRESSES:1e39 CONF:2 0 CONF:0 0 CONF:0 0 CONF:0 0 CONF:0 0 CONF:0 BB SIZE:2
TAG:2cc FORMAT:3 ENTANGLED_ADDRESSES:c7fa CONF:3 dd CONF:0 68d CONF:3 698 CONF:3 0 CONF:0 0 CONF:0 BB SIZE:1
TAG:7d0 FORMAT:2 ENTANGLED_ADDRESSES:edc20ca CONF:3 0 CONF:0 0 CONF:0 0 CONF:0 0 CONF:0 0 CONF:0 BB SIZE:1
TAG:7a5 FORMAT:3 ENTANGLED_ADDRESSES:709f CONF:3 240d2 CONF:2 709c CONF:3 0 CONF:0 0 CONF:0 0 CONF:0 BB SIZE:1
TAG:2d3 FORMAT:4 ENTANGLED_ADDRESSES:1831 CONF:3 17b2 CONF:3 1834 CONF:3 0 CONF:0 0 CONF:0 0 CONF:0 BB SIZE:2
TAG:2f5 FORMAT:3 ENTANGLED_ADDRESSES:5be3 CONF:2 5bde CONF:3 0 CONF:0 0 CONF:0 0 CONF:0 0 CONF:0 BB SIZE:2
TAG:35f FORMAT:1 ENTANGLED_ADDRESSES:0 CONF:0 0 CONF:0 0 CONF:0 0 CONF:0 0 CONF:0 0 CONF:0 BB SIZE:3
TAG:2cd FORMAT:3 ENTANGLED_ADDRESSES:967f CONF:0 bee CONF:3 3b14 CONF:3 0 CONF:0 0 CONF:0 0 CONF:0 BB SIZE:1
TAG:7b9 FORMAT:4 ENTANGLED_ADDRESSES:184e CONF:3 1916 CONF:3 1850 CONF:2 1278 CONF:3 0 CONF:0 0 CONF:0 BB SIZE:2
TAG:7bc FORMAT:4 ENTANGLED_ADDRESSES:135a CONF:3 1378 CONF:3 0 CONF:0 0 CONF:0 0 CONF:0 0 CONF:0 BB SIZE:3
SET:123
TAG:3ea FORMAT:3 ENTANGLED_ADDRESSES:769e CONF:3 0 CONF:0 0 CONF:0 0 CONF:0 0 CONF:0 0 CONF:0 BB SIZE:1
TAG:7b8 FORMAT:4 ENTANGLED_ADDRESSES:154b CONF:2 1536 CONF:3 153d CONF:3 1556 CONF:3 0 CONF:0 0 CONF:0 BB SIZE:0
TAG:0 FORMAT:3 ENTANGLED_ADDRESSES:456b CONF:3 0 CONF:0 0 CONF:0 0 CONF:0 0 CONF:0 0 CONF:0 BB SIZE:1
TAG:2bc FORMAT:3 ENTANGLED_ADDRESSES:15bd6 CONF:3 15bf2 CONF:3 0 CONF:0 0 CONF:0 0 CONF:0 0 CONF:0 BB SIZE:5
TAG:e0 FORMAT:1 ENTANGLED_ADDRESSES:0 CONF:0 0 CONF:0 0 CONF:0 0 CONF:0 0 CONF:0 0 CONF:0 BB SIZE:a
TAG:241 FORMAT:3 ENTANGLED_ADDRESSES:3300 CONF:3 57ab CONF:3 0 CONF:0 0 CONF:0 0 CONF:0 0 CONF:0 BB SIZE:0
TAG:2d3 FORMAT:3 ENTANGLED_ADDRESSES:fc1a CONF:3 777a CONF:3 0 CONF:0 0 CONF:0 0 CONF:0 0 CONF:0 BB SIZE:3
TAG:53 FORMAT:3 ENTANGLED_ADDRESSES:24455 CONF:3 257f0 CONF:1 24dd7 CONF:3 0 CONF:0 0 CONF:0 0 CONF:0 BB SIZE:2
TAG:253 FORMAT:4 ENTANGLED_ADDRESSES:1be8 CONF:1 0 CONF:0 0 CONF:0 0 CONF:0 0 CONF:0 0 CONF:0 BB SIZE:1
TAG:2aa FORMAT:3 ENTANGLED_ADDRESSES:46ee CONF:0 20bb CONF:3 0 CONF:0 0 CONF:0 0 CONF:0 0 CONF:0 BB SIZE:2
TAG:b99 FORMAT:6 ENTANGLED_ADDRESSES:a CONF:2 0 CONF:0 0 CONF:0 0 CONF:0 0 CONF:0 0 CONF:0 BB SIZE:2
TAG:268 FORMAT:6 ENTANGLED_ADDRESSES:66 CONF:3 0 CONF:0 0 CONF:0 0 CONF:0 0 CONF:0 0 CONF:0 BB SIZE:2
TAG:264 FORMAT:6 ENTANGLED_ADDRESSES:b5 CONF:2 ca CONF:3 0 CONF:0 0 CONF:0 0 CONF:0 0 CONF:0 BB SIZE:1
TAG:267 FORMAT:3 ENTANGLED_ADDRESSES:27704 CONF:3 3a64 CONF:3 3b4b CONF:3 0 CONF:0 0 CONF:0 0 CONF:0 BB SIZE:2
TAG:785 FORMAT:3 ENTANGLED_ADDRESSES:6f91 CONF:3 709f CONF:2 709e CONF:3 0 CONF:0 0 CONF:0 0 CONF:0 BB SIZE:2
TAG:359 FORMAT:3 ENTANGLED_ADDRESSES:151e7 CONF:3 0 CONF:0 0 CONF:0 0 CONF:0 0 CONF:0 0 CONF:0 BB SIZE:1
SET:124
TAG:38b FORMAT:3 ENTANGLED_ADDRESSES:11547 CONF:2 15004 CONF:2 10206 CONF:2 0 CONF:0 0 CONF:0 0 CONF:0 BB SIZE:3
TAG:c3 FORMAT:6 ENTANGLED_ADDRESSES:23 CONF:2 0 CONF:0 0 CONF:0 0 CONF:0 0 CONF:0 0 CONF:0 BB SIZE:5
TAG:368 FORMAT:2 ENTANGLED_ADDRESSES:edcf652 CONF:3 eccc171 CONF:3 0 CONF:0 0 CONF:0 0 CONF:0 0 CONF:0 BB SIZE:0
TAG:7f1 FORMAT:3 ENTANGLED_ADDRESSES:276fa CONF:3 276f3 CONF:3 3d3a CONF:2 0 CONF:0 0 CONF:0 0 CONF:0 BB SIZE:2
TAG:305 FORMAT:3 ENTANGLED_ADDRESSES:d063 CONF:2 d059 CONF:2 a111 CONF:3 0 CONF:0 0 CONF:0 0 CONF:0 BB SIZE:1
TAG:7a5 FORMAT:5 ENTANGLED_ADDRESSES:5b CONF:3 0 CONF:0 0 CONF:0 0 CONF:0 0 CONF:0 0 CONF:0 BB SIZE:1
TAG:2ab FORMAT:3 ENTANGLED_ADDRESSES:7858 CONF:3 871c CONF:3 7779 CONF:2 0 CONF:0 0 CONF:0 0 CONF:0 BB SIZE:2
TAG:34 FORMAT:6 ENTANGLED_ADDRESSES:c6 CONF:0 c1 CONF:3 0 CONF:0 0 CONF:0 0 CONF:0 0 CONF:0 BB SIZE:5
TAG:33b FORMAT:3 ENTANGLED_ADDRESSES:42a7 CONF:3 0 CONF:0 0 CONF:0 0 CONF:0 0 CONF:0 0 CONF:0 BB SIZE:10
TAG:391 FORMAT:3 ENTANGLED_ADDRESSES:1272b CONF:3 0 CONF:0 0 CONF:0 0 CONF:0 0 CONF:0 0 CONF:0 BB SIZE:0
TAG:21e FORMAT:1 ENTANGLED_ADDRESSES:0 CONF:0 0 CONF:0 0 CONF:0 0 CONF:0 0 CONF:0 0 CONF:0 BB SIZE:3
TAG:209 FORMAT:4 ENTANGLED_ADDRESSES:1e39 CONF:3 0 CONF:0 0 CONF:0 0 CONF:0 0 CONF:0 0 CONF:0 BB SIZE:0
TAG:2f7 FORMAT:4 ENTANGLED_ADDRESSES:f0f CONF:3 0 CONF:0 0 CONF:0 0 CONF:0 0 CONF:0 0 CONF:0 BB SIZE:1
TAG:3a7 FORMAT:6 ENTANGLED_ADDRESSES:93 CONF:3 0 CONF:0 0 CONF:0 0 CONF:0 0 CONF:0 0 CONF:0 BB SIZE:b
TAG:2b6 FORMAT:4 ENTANGLED_ADDRESSES:b44 CONF:3 b21 CONF:2 6ea CONF:3 b23 CONF:3 21 CONF:0 31 CONF:0 BB SIZE:4
TAG:2b0 FORMAT:3 ENTANGLED_ADDRESSES:8717 CONF:2 7fea CONF:0 0 CONF:0 0 CONF:0 0 CONF:0 0 CONF:0 BB SIZE:1
SET:125
TAG:a8a FORMAT:3 ENTANGLED_ADDRESSES:a237 CONF:2 7fc7 CONF:2 0 CONF:0 0 CONF:0 0 CONF:0 0 CONF:0 BB SIZE:1
TAG:20b FORMAT:3 ENTANGLED_ADDRESSES:a3a3 CONF:3 783a CONF:2 be43 CONF:1 0 CONF:0 0 CONF:0 0 CONF:0 BB SIZE:7
TAG:3eb FORMAT:3 ENTANGLED_ADDRESSES:7f66 CONF:3 101ef CONF:3 12878 CONF:3 0 CONF:0 0 CONF:0 0 CONF:0 BB SIZE:1
TAG:2c8 FORMAT:5 ENTANGLED_ADDRESSES:2d3 CONF:2 2d5 CONF:2 312 CONF:3 0 CONF:0 0 CONF:0 0 CONF:0 BB SIZE:3
TAG:241 FORMAT:3 ENTANGLED_ADDRESSES:d5ad CONF:3 0 CONF:0 0 CONF:0 0 CONF:0 0 CONF:0 0 CONF:0 BB SIZE:1
TAG:32b FORMAT:3 ENTANGLED_ADDRESSES:b752 CONF:3 bd90 CONF:3 b74c CONF:3 0 CONF:0 0 CONF:0 0 CONF:0 BB SIZE:8
TAG:7f1 FORMAT:3 ENTANGLED_ADDRESSES:46f4 CONF:1 277c7 CONF:0 4afe CONF:1 0 CONF:0 0 CONF:0 0 CONF:0 BB SIZE:0
TAG:38 FORMAT:3 ENTANGLED_ADDRESSES:13b7f CONF:3 809c CONF:3 2777 CONF:3 0 CONF:0 0 CONF:0 0 CONF:0 BB SIZE:7
TAG:ae1 FORMAT:2 ENTANGLED_ADDRESSES:edfc661 CONF:2 edb5caa CONF:3 0 CONF:0 0 CONF:0 0 CONF:0 0 CONF:0 BB SIZE:5
TAG:26e FORMAT:6 ENTANGLED_ADDRESSES:fe CONF:2 0 CONF:0 0 CONF:0 0 CONF:0 0 CONF:0 0 CONF:0 BB SIZE:1
TAG:32c FORMAT:6 ENTANGLED_ADDRESSES:6d CONF:2 7c CONF:3 0 CONF:0 0 CONF:0 0 CONF:0 0 CONF:0 BB SIZE:5
TAG:2cb FORMAT:1 ENTANGLED_ADDRESSES:3fffedfc826 CONF:1 0 CONF:0 0 CONF:0 0 CONF:0 0 CONF:0 0 CONF:0 BB SIZE:1
TAG:2a9 FORMAT:3 ENTANGLED_ADDRESSES:38fe CONF:3 0 CONF:0 0 CONF:0 0 CONF:0 0 CONF:0 0 CONF:0 BB SIZE:1
TAG:353 FORMAT:2 ENTANGLED_ADDRESSES:edb5ca9 CONF:3 edbfab0 CONF:3 0 CONF:0 0 CONF:0 0 CONF:0 0 CONF:0 BB SIZE:1
TAG:391 FORMAT:3 ENTANGLED_ADDRESSES:8815 CONF:3 96d5 CONF:3 b35c CONF:3 0 CONF:0 0 CONF:0 0 CONF:0 BB SIZE:2
TAG:21e FORMAT:5 ENTANGLED_ADDRESSES:125 CONF:3 0 CONF:0 0 CONF:0 0 CONF:0 0 CONF:0 0 CONF:0 BB SIZE:5
SET:126
TAG:7f2 FORMAT:3 ENTANGLED_ADDRESSES:3b4b CONF:2 3b2d CONF:3 0 CONF:0 0 CONF:0 0 CONF:0 0 CONF:0 BB SIZE:0
TAG:29e FORMAT:6 ENTANGLED_ADDRESSES:b9 CONF:3 0 CONF:0 0 CONF:0 0 CONF:0 0 CONF:0 0 CONF:0 BB SIZE:3
TAG:391 FORMAT:3 ENTANGLED_ADDRESSES:74c2 CONF:3 628 CONF:0 8828 CONF:3 8954 CONF:3 0 CONF:0 0 CONF:0 BB SIZE:1
TAG:107 FORMAT:6 ENTANGLED_ADDRESSES:7b CONF:3 9e CONF:3 0 CONF:0 0 CONF:0 0 CONF:0 0 CONF:0 BB SIZE:1
TAG:32b FORMAT:2 ENTANGLED_ADDRESSES:eccb763 CONF:1 e8e49be CONF:3 0 CONF:0 0 CONF:0 0 CONF:0 0 CONF:0 BB SIZE:2
TAG:7b9 FORMAT:3 ENTANGLED_ADDRESSES:46c5 CONF:3 25459 CONF:3 2553c CONF:3 0 CONF:0 0 CONF:0 0 CONF:0 BB SIZE:5
TAG:ae0 FORMAT:2 ENTANGLED_ADDRESSES:edc504c CONF:0 edba6da CONF:2 0 CONF:0 0 CONF:0 0 CONF:0 0 CONF:0 BB SIZE:0
TAG:cf FORMAT:3 ENTANGLED_ADDRESSES:e820 CONF:3 d897 CONF:3 d8a1 CONF:3 0 CONF:0 0 CONF:0 0 CONF:0 BB SIZE:9
TAG:d2 FORMAT:6 ENTANGLED_ADDRESSES:60 CONF:2 65 CONF:2 0 CONF:0 0 CONF:0 0 CONF:0 0 CONF:0 BB SIZE:5
TAG:3ea FORMAT:2 ENTANGLED_ADDRESSES:edc3775 CONF:3 edc523a CONF:3 0 CONF:0 0 CONF:0 0 CONF:0 0 CONF:0 BB SIZE:2
TAG:2cd FORMAT:3 ENTANGLED_ADDRESSES:e1e6 CONF:0 400 CONF:2 4466 CONF:2 1005 CONF:0 0 CONF:0 0 CONF:0 BB SIZE:3
TAG:29f FORMAT:3 ENTANGLED_ADDRESSES:5bf2 CONF:1 6191 CONF:3 5ba2 CONF:3 0 CONF:0 0 CONF:0 0 CONF:0 BB SIZE:5
TAG:2b7 FORMAT:2 ENTANGLED_ADDRESSES:edd0c9a CONF:3 edb5cba CONF:3 0 CONF:0 0 CONF:0 0 CONF:0 0 CONF:0 BB SIZE:2
TAG:35f FORMAT:1 ENTANGLED_ADDRESSES:0 CONF:0 0 CONF:0 0 CONF:0 0 CONF:0 0 CONF:0 0 CONF:0 BB SIZE:1
TAG:38 FORMAT:3 ENTANGLED_ADDRESSES:235c CONF:3 2380 CONF:3 0 CONF:0 0 CONF:0 0 CONF:0 0 CONF:0 BB SIZE:1
TAG:7af FORMAT:4 ENTANGLED_ADDRESSES:1a27 CONF:3 1a3a CONF:3 1bfb CONF:1 1a20 CONF:2 0 CONF:0 0 CONF:0 BB SIZE:3
SET:127
TAG:107 FORMAT:5 ENTANGLED_ADDRESSES:b4 CONF:2 18f CONF:2 0 CONF:0 0 CONF:0 0 CONF:0 0 CONF:0 BB SIZE:1
TAG:29f FORMAT:2 ENTANGLED_ADDRESSES:edcba33 CONF:3 f40c CONF:0 ecd3cc1 CONF:3 0 CONF:0 0 CONF:0 0 CONF:0 BB SIZE:7
TAG:2f5 FORMAT:6 ENTANGLED_ADDRESSES:67 CONF:3 0 CONF:0 0 CONF:0 0 CONF:0 0 CONF:0 0 CONF:0 BB SIZE:6
TAG:7d0 FORMAT:3 ENTANGLED_ADDRESSES:2558f CONF:1 256fe CONF:1 256db CONF:1 0 CONF:0 0 CONF:0 0 CONF:0 BB SIZE:1
TAG:cb FORMAT:2 ENTANGLED_ADDRESSES:edf7755 CONF:3 edb5cab CONF:3 0 CONF:0 0 CONF:0 0 CONF:0 0 CONF:0 BB SIZE:7
TAG:7a3 FORMAT:1 ENTANGLED_ADDRESSES:0 CONF:0 0 CONF:0 0 CONF:0 0 CONF:0 0 CONF:0 0 CONF:0 BB SIZE:1
TAG:25c FORMAT:1 ENTANGLED_ADDRESSES:0 CONF:0 0 CONF:0 0 CONF:0 0 CONF:0 0 CONF:0 0 CONF:0 BB SIZE:a
TAG:7f2 FORMAT:3 ENTANGLED_ADDRESSES:21f4 CONF:3 46eb CONF:3 4b3e CONF:2 0 CONF:0 0 CONF:0 0 CONF:0 BB SIZE:0
TAG:353 FORMAT:2 ENTANGLED_ADDRESSES:ecc80a6 CONF:3 ecce929 CONF:2 0 CONF:0 0 CONF:0 0 CONF:0 0 CONF:0 BB SIZE:0
TAG:a8a FORMAT:3 ENTANGLED_ADDRESSES:813b CONF:2 7fef CONF:2 0 CONF:0 0 CONF:0 0 CONF:0 0 CONF:0 BB SIZE:0
TAG:31b FORMAT:3 ENTANGLED_ADDRESSES:dc3d CONF:3 27bf CONF:3 0 CONF:0 0 CONF:0 0 CONF:0 0 CONF:0 BB SIZE:7
TAG:2d3 FORMAT:3 ENTANGLED_ADDRESSES:fcf1 CONF:3 fc1a CONF:3 79e5 CONF:3 0 CONF:0 0 CONF:0 0 CONF:0 BB SIZE:3
TAG:2b4 FORMAT:4 ENTANGLED_ADDRESSES:718 CONF:0 59b CONF:3 599 CONF:0 0 CONF:0 0 CONF:0 0 CONF:0 BB SIZE:0
TAG:7bb FORMAT:4 ENTANGLED_ADDRESSES:1974 CONF:3 1140 CONF:3 1971 CONF:1 0 CONF:0 0 CONF:0 0 CONF:0 BB SIZE:1
TAG:7f1 FORMAT:3 ENTANGLED_ADDRESSES:2133 CONF:2 276f8 CONF:0 0 CONF:0 0 CONF:0 0 CONF:0 0 CONF:0 BB SIZE:2
TAG:d6 FORMAT:3 ENTANGLED_ADDRESSES:4558 CONF:3 0 CONF:0 0 CONF:0 0 CONF:0 0 CONF:0 0 CONF:0 BB SIZE:2
SET:128
TAG:b9c FORMAT:3 ENTANGLED_ADDRESSES:272c CONF:2 2726 CONF:2 b352 CONF:3 0 CONF:0 0 CONF:0 0 CONF:0 BB SIZE:6
TAG:264 FORMAT:6 ENTANGLED_ADDRESSES:d3 CONF:3 c9 CONF:3 0 CONF:0 0 CONF:0 0 CONF:0 0 CONF:0 BB SIZE:2
TAG:386 FORMAT:3 ENTANGLED_ADDRESSES:49f3 CONF:2 f9d2 CONF:3 f9d4 CONF:3 0 CONF:0 0 CONF:0 0 CONF:0 BB SIZE:2
TAG:265 FORMAT:4 ENTANGLED_ADDRESSES:1c44 CONF:3 1a7e CONF:3 1c28 CONF:3 1a98 CONF:3 0 CONF:0 0 CONF:0 BB SIZE:6
TAG:7f2 FORMAT:3 ENTANGLED_ADDRESSES:3d3a CONF:3 3846 CONF:3 3a43 CONF:3 0 CONF:0 0 CONF:0 0 CONF:0 BB SIZE:1
TAG:a8b FORMAT:3 ENTANGLED_ADDRESSES:10b46 CONF:3 0 CONF:0 0 CONF:0 0 CONF:0 0 CONF:0 0 CONF:0 BB SIZE:1
TAG:7bc FORMAT:4 ENTANGLED_ADDRESSES:1356 CONF:3 0 CONF:0 0 CONF:0 0 CONF:0 0 CONF:0 0 CONF:0 BB SIZE:2
TAG:7a8 FORMAT:6 ENTANGLED_ADDRESSES:68 CONF:1 65 CONF:1 0 CONF:0 0 CONF:0 0 CONF:0 0 CONF:0 BB SIZE:1
TAG:35f FORMAT:1 ENTANGLED_ADDRESSES:0 CONF:0 0 CONF:0 0 CONF:0 0 CONF:0 0 CONF:0 0 CONF:0 BB SIZE:1
TAG:700 FORMAT:2 ENTANGLED_ADDRESSES:edc80fe CONF:3 edc7fef CONF:2 0 CONF:0 0 CONF:0 0 CONF:0 0 CONF:0 BB SIZE:2
TAG:2ae FORMAT:3 ENTANGLED_ADDRESSES:151 CONF:3 0 CONF:0 0 CONF:0 0 CONF:0 0 CONF:0 0 CONF:0 BB SIZE:1
TAG:378 FORMAT:3 ENTANGLED_ADDRESSES:e4ef CONF:3 141a2 CONF:2 0 CONF:0 0 CONF:0 0 CONF:0 0 CONF:0 BB SIZE:1
TAG:788 FORMAT:2 ENTANGLED_ADDRESSES:edc8196 CONF:3 edc8191 CONF:3 0 CONF:0 0 CONF:0 0 CONF:0 0 CONF:0 BB SIZE:1
TAG:12 FORMAT:6 ENTANGLED_ADDRESSES:af CONF:1 b3 CONF:3 ad CONF:3 b9 CONF:3 0 CONF:0 0 CONF:0 BB SIZE:6
TAG:2e4 FORMAT:3 ENTANGLED_ADDRESSES:1fa2 CONF:3 4572 CONF:3 4562 CONF:3 0 CONF:0 0 CONF:0 0 CONF:0 BB SIZE:1
TAG:2ac FORMAT:3 ENTANGLED_ADDRESSES:21d32 CONF:2 45c6 CONF:3 2616 CONF:3 0 CONF:0 0 CONF:0 0 CONF:0 BB SIZE:2

DRAM Statistics
 CHANNEL 0
 RQ ROW_BUFFER_HIT:       6273  ROW_BUFFER_MISS:      1b349
 DBUS AVG_CONGESTED_CYCLE:    3.92084
 WQ ROW_BUFFER_HIT:       2584  ROW_BUFFER_MISS:       fd94  FULL:          0


CPU 0 Branch Prediction Accuracy: 96.6016% MPKI: 5.79848 Average ROB Occupancy at Mispredict: 195.292
Branch type MPKI
BRANCH_DIRECT_JUMP: 0.0432
BRANCH_INDIRECT: 0.12976
BRANCH_CONDITIONAL: 4.13252
BRANCH_DIRECT_CALL: 0.06328
BRANCH_INDIRECT_CALL: 0.0208
BRANCH_RETURN: 1.40892

