
*** ChampSim Multicore Out-of-Order Simulator ***

Warmup Instructions: 25000000
Simulation Instructions: 25000000
Number of CPUs: 1
Off-chip DRAM Size: 4 GiB Channels: 1 Width: 64-bit Data Rate: 3200 MT/s

VirtualMemory physical capacity: 8588881920 num_ppages: 2096895
VirtualMemory page size: 4096 log2_page_size: 12

CPU 0 runs ipc1_public/server_001.champsimtrace.xz
Basic BTB sets: 1024 ways: 8 indirect buffer size: 4096 RAS size: 64
CPU 0 Entangling prefetcher
CPU 0 Entangling TLB prefetcher
cpu0_L1D next line prefetcher
WARNING: The extended signature CACHE::prefetch_line(ip, base_addr, pf_addr, fill_this_level, prefetch_metadata) is deprecated.
WARNING: Use CACHE::prefetch_line(pf_addr, fill_this_level, prefetch_metadata) instead.
Heartbeat CPU 0 instructions: 10000001 cycles: 2533481 heartbeat IPC: 3.94714 cumulative IPC: 3.94714 (Simulation time: 0 hr 0 min 26 sec) 
Heartbeat CPU 0 instructions: 20000003 cycles: 5075257 heartbeat IPC: 3.93426 cumulative IPC: 3.94069 (Simulation time: 0 hr 0 min 53 sec) 

Warmup complete CPU 0 instructions: 25000003 cycles: 6345913 (Simulation time: 0 hr 1 min 7 sec) 

Heartbeat CPU 0 instructions: 30000003 cycles: 9492352 heartbeat IPC: 2.26393 cumulative IPC: 1.5891 (Simulation time: 0 hr 1 min 29 sec) 
Heartbeat CPU 0 instructions: 40000001 cycles: 16969638 heartbeat IPC: 1.33738 cumulative IPC: 1.41193 (Simulation time: 0 hr 2 min 19 sec) 
Heartbeat CPU 0 instructions: 50000000 cycles: 24011303 heartbeat IPC: 1.42012 cumulative IPC: 1.4152 (Simulation time: 0 hr 3 min 9 sec) 
Finished CPU 0 instructions: 25000002 cycles: 17665391 cumulative IPC: 1.4152 (Simulation time: 0 hr 3 min 9 sec) 

ChampSim completed all CPUs

Region of Interest Statistics

CPU 0 cumulative IPC: 1.4152 instructions: 25000002 cycles: 17665391
cpu0_DTLB TOTAL     ACCESS:    4761852  HIT:    4606818  MISS:     155034
cpu0_DTLB LOAD      ACCESS:    2990262  HIT:    2845813  MISS:     144449
cpu0_DTLB RFO       ACCESS:    1771590  HIT:    1761005  MISS:      10585
cpu0_DTLB PREFETCH  ACCESS:          0  HIT:          0  MISS:          0
cpu0_DTLB WRITEBACK ACCESS:          0  HIT:          0  MISS:          0
cpu0_DTLB TRANSLATION ACCESS:          0  HIT:          0  MISS:          0
cpu0_DTLB PREFETCH  REQUESTED:          0  ISSUED:          0  USEFUL:          0  USELESS:          0
cpu0_DTLB AVERAGE MISS LATENCY: 14.3925 cycles
cpu0_ITLB TOTAL     ACCESS:    1205497  HIT:    1153654  MISS:      51843
cpu0_ITLB LOAD      ACCESS:    1205497  HIT:    1153654  MISS:      51843
cpu0_ITLB RFO       ACCESS:          0  HIT:          0  MISS:          0
cpu0_ITLB PREFETCH  ACCESS:          0  HIT:          0  MISS:          0
cpu0_ITLB WRITEBACK ACCESS:          0  HIT:          0  MISS:          0
cpu0_ITLB TRANSLATION ACCESS:          0  HIT:          0  MISS:          0
cpu0_ITLB PREFETCH  REQUESTED:          0  ISSUED:          0  USEFUL:          0  USELESS:          0
cpu0_ITLB AVERAGE MISS LATENCY: 10.3307 cycles
cpu0_L1I TOTAL     ACCESS:   10061038  HIT:    9671428  MISS:     389610
cpu0_L1I LOAD      ACCESS:    2586650  HIT:    2552515  MISS:      34135
cpu0_L1I RFO       ACCESS:          0  HIT:          0  MISS:          0
cpu0_L1I PREFETCH  ACCESS:    7474388  HIT:    7118913  MISS:     355475
cpu0_L1I WRITEBACK ACCESS:          0  HIT:          0  MISS:          0
cpu0_L1I TRANSLATION ACCESS:          0  HIT:          0  MISS:          0
cpu0_L1I PREFETCH  REQUESTED:   10568371  ISSUED:    7494932  USEFUL:     329725  USELESS:      37976
cpu0_L1I AVERAGE MISS LATENCY: 33.8031 cycles
cpu0_STLB TOTAL     ACCESS:     211389  HIT:     195910  MISS:      15479
cpu0_STLB LOAD      ACCESS:     196292  HIT:     181788  MISS:      14504
cpu0_STLB RFO       ACCESS:      10585  HIT:       9610  MISS:        975
cpu0_STLB PREFETCH  ACCESS:       4512  HIT:       4512  MISS:          0
cpu0_STLB WRITEBACK ACCESS:          0  HIT:          0  MISS:          0
cpu0_STLB TRANSLATION ACCESS:          0  HIT:          0  MISS:          0
cpu0_STLB PREFETCH  REQUESTED:     196014  ISSUED:       4644  USEFUL:          0  USELESS:          0
cpu0_STLB AVERAGE MISS LATENCY: 58.1688 cycles
cpu0_L1D TOTAL     ACCESS:    8566508  HIT:    8288672  MISS:     277836
cpu0_L1D LOAD      ACCESS:    3018144  HIT:    2901247  MISS:     116897
cpu0_L1D RFO       ACCESS:    2603781  HIT:    2557509  MISS:      46272
cpu0_L1D PREFETCH  ACCESS:    2929509  HIT:    2817604  MISS:     111905
cpu0_L1D WRITEBACK ACCESS:          0  HIT:          0  MISS:          0
cpu0_L1D TRANSLATION ACCESS:      15074  HIT:      12312  MISS:       2762
cpu0_L1D PREFETCH  REQUESTED:    3042633  ISSUED:    3030819  USEFUL:     112790  USELESS:      24725
cpu0_L1D AVERAGE MISS LATENCY: 162.211 cycles
cpu0_L2C TOTAL     ACCESS:     776284  HIT:     512017  MISS:     264267
cpu0_L2C LOAD      ACCESS:     114080  HIT:      51790  MISS:      62290
cpu0_L2C RFO       ACCESS:      45155  HIT:       4871  MISS:      40284
cpu0_L2C PREFETCH  ACCESS:     505435  HIT:     345025  MISS:     160410
cpu0_L2C WRITEBACK ACCESS:     108852  HIT:     108463  MISS:        389
cpu0_L2C TRANSLATION ACCESS:       2762  HIT:       1868  MISS:        894
cpu0_L2C PREFETCH  REQUESTED:          0  ISSUED:          0  USEFUL:          0  USELESS:          0
cpu0_L2C AVERAGE MISS LATENCY: 214.335 cycles
LLC TOTAL     ACCESS:     356220  HIT:     219910  MISS:     136310
LLC LOAD      ACCESS:      62286  HIT:      34320  MISS:      27966
LLC RFO       ACCESS:      40283  HIT:       4272  MISS:      36011
LLC PREFETCH  ACCESS:     160410  HIT:      88219  MISS:      72191
LLC WRITEBACK ACCESS:      92347  HIT:      92313  MISS:         34
LLC TRANSLATION ACCESS:        894  HIT:        786  MISS:        108
LLC PREFETCH  REQUESTED:          0  ISSUED:          0  USEFUL:          0  USELESS:          0
LLC AVERAGE MISS LATENCY: 374.874 cycles
CPU 0 L1I Entangling prefetcher final stats
IP accesses: 1f9c 7e700 26949 / 2587948
IP misses: c257 3095c0 322 / 35433
IP hits: 0 0 0 / 0
IP late: c257 3095c0 322 / 26544
IP wrong: ec0 3b000 567 / 82116
miss rate: 0.0136915
coverage: 0
coverage_late: 0.749132
accuracy: 0
accuracy_late: 0.244285
discarded: 0
evicts entangled j table: 0
evicts entangled k table: 6040
max bb size: 111
formats: 539 1598 5712 1054 815 1565 0 
hist_lookups: 3639 4831 4143 3521 2749 2027 1636 1251 879 692 498 342 235 173 122 0 21 1572 
hist_lookups_evict: 0.0741238 %
hist_lookups_shortlat: 5.54869 %
bb_found_hist: 0 437694 196788 103766 100009 57371 40767 21685 24829 15060 3840 2223 3530 6567 6279 269 2867 2969 142 395 493 5950 429 0 0 856 8 3604 0 0 0 0 0 8 0 0 0 0 0 0 0 0 7 0 0 0 0 8 0 0 0 0 0 0 0 0 0 0 0 0 0 0 0 0 
bb_found_summary: 3213057 1038413 3.0942
entangled_found_hist: 0 257641 299803 391153 16730 8730 460 0 
entangled_found_summary: 2144036 974517 2.2001
bb_ent_found_hist: 0 754444 327347 146131 127734 138647 95795 19055 27832 15067 6001 2882 1559 13685 1061 561 8951 11271 609 586 2425 15487 840 0 0 0 16 7423 0 0 0 0 0 27 0 0 0 0 0 0 0 0 744 0 0 0 0 15 0 0 0 0 0 0 0 0 0 0 0 0 0 0 0 0 
bb_ent_found_summary: 5412517 1726195 3.13552
CPU 0 TLB Entangling prefetcher final stats
ACCESS:4512 HIT:4512 MISS:0
IP accesses: cf01 cf01000 2531 / 196292
IP misses: 0 0 19 / 14504
IP hits: 0 0 0 / 0
IP late: ca91 ca91000 7 / 228
IP wrong: 55dd 55dd000 1 / 1
miss rate: 0.0738899
coverage: 0
coverage_late: 0.0157198
accuracy: 0
accuracy_late: 0.995633
discarded: 0
evicts entangled j table: 0
evicts entangled k table: 5635
max bb size: 45
formats: 5175 1078 2695 1409 907 1031 0 
hist_lookups: 15886 12127 3154 1175 663 411 244 162 135 83 38 41 52 44 3 0 6 1772 
hist_lookups_evict: 0.0166685 %
hist_lookups_shortlat: 4.92277 %
bb_found_hist: 0 13206 830 16 2 1 0 2 0 3 0 1 1 3 2 0 
bb_found_summary: 15058 14067 1.07045
entangled_found_hist: 0 81298 21681 15337 829 0 0 0 
entangled_found_summary: 173987 119145 1.4603
bb_ent_found_hist: 0 6503 431 10 0 28 0 2 0 29 0 0 11 1 0 0 
bb_ent_found_summary: 7955 7015 1.134

DRAM Statistics
 CHANNEL 0
 RQ ROW_BUFFER_HIT:      25056  ROW_BUFFER_MISS:     111172
 DBUS AVG_CONGESTED_CYCLE:    3.92751
 WQ ROW_BUFFER_HIT:       9281  ROW_BUFFER_MISS:      64865  FULL:          0


CPU 0 Branch Prediction Accuracy: 96.6016% MPKI: 5.79848 Average ROB Occupancy at Mispredict: 200.618
Branch type MPKI
BRANCH_DIRECT_JUMP: 0.0432
BRANCH_INDIRECT: 0.12976
BRANCH_CONDITIONAL: 4.13252
BRANCH_DIRECT_CALL: 0.06328
BRANCH_INDIRECT_CALL: 0.0208
BRANCH_RETURN: 1.40892

