WARNING: physical memory size is smaller than virtual memory size.
WARNING: option --warmup_instructions is deprecated. Use --warmup-instructions instead.
WARNING: option --simulation_instructions is deprecated. Use --simulation-instructions instead.

*** ChampSim Multicore Out-of-Order Simulator ***
Warmup Instructions: 25000000
Simulation Instructions: 25000000
Number of CPUs: 1
Page size: 4096

CPU 0 Entangling prefetcher
Off-chip DRAM Size: 4 GiB Channels: 1 Width: 64-bit Data Race: 3200 MT/s
Heartbeat CPU 0 instructions: 10000000 cycles: 2503261 heartbeat IPC: 3.995 cumulative IPC: 3.995 (Simulation time: 00 hr 00 min 26 sec)
Heartbeat CPU 0 instructions: 20000003 cycles: 5007751 heartbeat IPC: 3.993 cumulative IPC: 3.994 (Simulation time: 00 hr 00 min 52 sec)
Warmup finished CPU 0 instructions: 25000003 cycles: 6398719 cumulative IPC: 3.907 (Simulation time: 00 hr 01 min 04 sec)
Warmup complete CPU 0 instructions: 25000003 cycles: 6398719 cumulative IPC: 3.907 (Simulation time: 00 hr 01 min 04 sec)
Heartbeat CPU 0 instructions: 30000004 cycles: 8474852 heartbeat IPC: 2.884 cumulative IPC: 2.408 (Simulation time: 00 hr 01 min 23 sec)
Heartbeat CPU 0 instructions: 40000004 cycles: 14112296 heartbeat IPC: 1.774 cumulative IPC: 1.945 (Simulation time: 00 hr 02 min 07 sec)
Heartbeat CPU 0 instructions: 50000002 cycles: 19213556 heartbeat IPC: 1.96 cumulative IPC: 1.951 (Simulation time: 00 hr 02 min 47 sec)
Simulation finished CPU 0 instructions: 25000004 cycles: 12814839 cumulative IPC: 1.951 (Simulation time: 00 hr 02 min 47 sec)
Simulation complete CPU 0 instructions: 25000004 cycles: 12814839 cumulative IPC: 1.951 (Simulation time: 00 hr 02 min 47 sec)

ChampSim completed all CPUs

=== Simulation ===
CPU 0 runs ipc1_public/server_004.champsimtrace.xz
Region of Interest Statistics

CPU 0 cumulative IPC: 1.951 instructions: 25000004 cycles: 12814839
CPU 0 Branch Prediction Accuracy: 97.28% MPKI: 5.983 Average ROB Occupancy at Mispredict: 126.5
Branch type MPKI
BRANCH_DIRECT_JUMP: 0.386
BRANCH_INDIRECT: 0.385
BRANCH_CONDITIONAL: 3.07
BRANCH_DIRECT_CALL: 0.677
BRANCH_INDIRECT_CALL: 0.158
BRANCH_RETURN: 1.31

LLC TOTAL        ACCESS:     625332 HIT:     551817 MISS:      73515
LLC LOAD         ACCESS:     142373 HIT:     124546 MISS:      17827
LLC RFO          ACCESS:      20409 HIT:      15381 MISS:       5028
LLC PREFETCH     ACCESS:     346361 HIT:     315401 MISS:      30960
LLC WRITE        ACCESS:      64373 HIT:      64351 MISS:         22
LLC TRANSLATION  ACCESS:      51816 HIT:      32138 MISS:      19678
LLC PREFETCH REQUESTED:          0 ISSUED:          0 USEFUL:          0 USELESS:          0
LLC AVERAGE MISS LATENCY: 226 cycles
cpu0_DTLB TOTAL        ACCESS:    5921674 HIT:    4457529 MISS:    1464145
cpu0_DTLB LOAD         ACCESS:    5921674 HIT:    4457529 MISS:    1464145
cpu0_DTLB RFO          ACCESS:          0 HIT:          0 MISS:          0
cpu0_DTLB PREFETCH     ACCESS:          0 HIT:          0 MISS:          0
cpu0_DTLB WRITE        ACCESS:          0 HIT:          0 MISS:          0
cpu0_DTLB TRANSLATION  ACCESS:          0 HIT:          0 MISS:          0
cpu0_DTLB PREFETCH REQUESTED:          0 ISSUED:          0 USEFUL:          0 USELESS:          0
cpu0_DTLB AVERAGE MISS LATENCY: 7.06 cycles
cpu0_ITLB TOTAL        ACCESS:    3905640 HIT:    3622221 MISS:     283419
cpu0_ITLB LOAD         ACCESS:    3905640 HIT:    3622221 MISS:     283419
cpu0_ITLB RFO          ACCESS:          0 HIT:          0 MISS:          0
cpu0_ITLB PREFETCH     ACCESS:          0 HIT:          0 MISS:          0
cpu0_ITLB WRITE        ACCESS:          0 HIT:          0 MISS:          0
cpu0_ITLB TRANSLATION  ACCESS:          0 HIT:          0 MISS:          0
cpu0_ITLB PREFETCH REQUESTED:          0 ISSUED:          0 USEFUL:          0 USELESS:          0
cpu0_ITLB AVERAGE MISS LATENCY: 11.39 cycles
cpu0_L1D TOTAL        ACCESS:    9817947 HIT:    8039132 MISS:    1778815
cpu0_L1D LOAD         ACCESS:    4903841 HIT:    3622308 MISS:    1281533
cpu0_L1D RFO          ACCESS:          0 HIT:          0 MISS:          0
cpu0_L1D PREFETCH     ACCESS:    2418006 HIT:    2115496 MISS:     302510
cpu0_L1D WRITE        ACCESS:    2427929 HIT:    2295119 MISS:     132810
cpu0_L1D TRANSLATION  ACCESS:      68171 HIT:       6209 MISS:      61962
cpu0_L1D PREFETCH REQUESTED:    4968397 ISSUED:    2417999 USEFUL:      42557 USELESS:     132669
cpu0_L1D AVERAGE MISS LATENCY: 18.68 cycles
cpu0_L1I TOTAL        ACCESS:    5761520 HIT:    4919521 MISS:     841999
cpu0_L1I LOAD         ACCESS:    1803643 HIT:    1610560 MISS:     193083
cpu0_L1I RFO          ACCESS:          0 HIT:          0 MISS:          0
cpu0_L1I PREFETCH     ACCESS:    3957877 HIT:    3308961 MISS:     648916
cpu0_L1I WRITE        ACCESS:          0 HIT:          0 MISS:          0
cpu0_L1I TRANSLATION  ACCESS:          0 HIT:          0 MISS:          0
cpu0_L1I PREFETCH REQUESTED:    6142833 ISSUED:    3957895 USEFUL:     421449 USELESS:     199373
cpu0_L1I AVERAGE MISS LATENCY: 19.2 cycles
cpu0_L2C TOTAL        ACCESS:    2286684 HIT:    1725367 MISS:     561317
cpu0_L2C LOAD         ACCESS:    1267475 HIT:    1125102 MISS:     142373
cpu0_L2C RFO          ACCESS:      46636 HIT:      26227 MISS:      20409
cpu0_L2C PREFETCH     ACCESS:     796065 HIT:     449698 MISS:     346367
cpu0_L2C WRITE        ACCESS:     115302 HIT:     114950 MISS:        352
cpu0_L2C TRANSLATION  ACCESS:      61206 HIT:       9390 MISS:      51816
cpu0_L2C PREFETCH REQUESTED:          0 ISSUED:          0 USEFUL:          0 USELESS:          0
cpu0_L2C AVERAGE MISS LATENCY: 49.75 cycles
cpu0_STLB TOTAL        ACCESS:    1134768 HIT:    1081220 MISS:      53548
cpu0_STLB LOAD         ACCESS:    1134768 HIT:    1081220 MISS:      53548
cpu0_STLB RFO          ACCESS:          0 HIT:          0 MISS:          0
cpu0_STLB PREFETCH     ACCESS:          0 HIT:          0 MISS:          0
cpu0_STLB WRITE        ACCESS:          0 HIT:          0 MISS:          0
cpu0_STLB TRANSLATION  ACCESS:          0 HIT:          0 MISS:          0
cpu0_STLB PREFETCH REQUESTED:          0 ISSUED:          0 USEFUL:          0 USELESS:          0
cpu0_STLB AVERAGE MISS LATENCY: 131 cycles

DRAM Statistics

Channel 0 RQ ROW_BUFFER_HIT:      13134
  ROW_BUFFER_MISS:      60280
 AVG DBUS CONGESTED CYCLE: 3.892
WQ ROW_BUFFER_HIT: Channel 0 
  ROW_BUFFER_MISS:       2846
  FULL:      15537
CPU 0 L1I Entangling prefetcher final stats
IP accesses: bfb3 2fecc0 26747 / 4123319
IP misses: 20a1 82840 1319 / 593272
IP hits: 891b 2246c0 911 / 737586
IP late: 3a7f e9fc0 492 / 252411
IP wrong: a6dc 29b700 809 / 391915
miss rate: 0.143883
coverage: 0.554219
coverage_late: 0.743879
accuracy: 0.533744
accuracy_late: 0.716397
discarded: 0
evicts entangled j table: 0
evicts entangled k table: 79065
max bb size: 111
formats: 5804 25576 55250 14821 8040 18922 0 
hist_lookups: 57879 62608 47600 38704 31292 24342 19049 15654 12696 10102 7844 5957 4029 2594 1188 0 0 13597 
hist_lookups_evict: 0 %
hist_lookups_shortlat: 3.82869 %
bb_found_hist: 0 668419 332753 146381 84717 61701 20926 18621 37979 2780 8156 13496 3039 1991 1298 11555 1153 1900 450 483 546 93 197 331 124 0 247 96 194 0 25 154 0 0 91 0 98 0 0 0 76 0 0 0 0 0 0 69 9 0 0 0 0 0 0 0 0 0 0 0 0 0 152 0 
bb_found_summary: 3627612 1420300 2.55412
entangled_found_hist: 0 432595 523972 524262 70448 20703 2760 0 
entangled_found_summary: 3455192 1574740 2.19414
bb_ent_found_hist: 0 1083352 622331 352523 135142 104005 59061 18706 33909 8425 7025 17734 5467 6702 5407 26952 2675 5492 787 1288 1738 185 142 1263 38 0 118 15 1513 0 91 1 0 0 329 0 145 0 0 0 233 0 0 0 0 0 0 107 18 0 0 0 0 0 0 0 0 0 0 0 0 0 109 0 
bb_ent_found_summary: 6510120 2503028 2.6009
