
*** ChampSim Multicore Out-of-Order Simulator ***

Warmup Instructions: 25000000
Simulation Instructions: 25000000
Number of CPUs: 1
Off-chip DRAM Size: 4 GiB Channels: 1 Width: 64-bit Data Rate: 3200 MT/s

VirtualMemory physical capacity: 8588881920 num_ppages: 2096895
VirtualMemory page size: 4096 log2_page_size: 12

CPU 0 runs ipc1_public/server_002.champsimtrace.xz
Basic BTB sets: 1024 ways: 8 indirect buffer size: 4096 RAS size: 64
cpu0_STLB arbitrary stride prefetcher
cpu0_L1D next line prefetcher
WARNING: The extended signature CACHE::prefetch_line(ip, base_addr, pf_addr, fill_this_level, prefetch_metadata) is deprecated.
WARNING: Use CACHE::prefetch_line(pf_addr, fill_this_level, prefetch_metadata) instead.
Heartbeat CPU 0 instructions: 10000001 cycles: 2504081 heartbeat IPC: 3.99348 cumulative IPC: 3.99348 (Simulation time: 0 hr 0 min 40 sec) 
Heartbeat CPU 0 instructions: 20000002 cycles: 5033638 heartbeat IPC: 3.95326 cumulative IPC: 3.97327 (Simulation time: 0 hr 1 min 25 sec) 

Warmup complete CPU 0 instructions: 25000002 cycles: 6283638 (Simulation time: 0 hr 1 min 47 sec) 

Heartbeat CPU 0 instructions: 30000001 cycles: 10255926 heartbeat IPC: 1.91487 cumulative IPC: 1.25872 (Simulation time: 0 hr 2 min 35 sec) 
Heartbeat CPU 0 instructions: 40000004 cycles: 17609159 heartbeat IPC: 1.35995 cumulative IPC: 1.32444 (Simulation time: 0 hr 4 min 34 sec) 
Heartbeat CPU 0 instructions: 50000000 cycles: 24960848 heartbeat IPC: 1.36023 cumulative IPC: 1.33853 (Simulation time: 0 hr 6 min 22 sec) 
Finished CPU 0 instructions: 25000002 cycles: 18677214 cumulative IPC: 1.33853 (Simulation time: 0 hr 6 min 22 sec) 

ChampSim completed all CPUs

Region of Interest Statistics

CPU 0 cumulative IPC: 1.33853 instructions: 25000002 cycles: 18677214
cpu0_DTLB TOTAL     ACCESS:    5228372  HIT:    5103316  MISS:     125056
cpu0_DTLB LOAD      ACCESS:    2643169  HIT:    2529938  MISS:     113231
cpu0_DTLB RFO       ACCESS:    2585203  HIT:    2573378  MISS:      11825
cpu0_DTLB PREFETCH  ACCESS:          0  HIT:          0  MISS:          0
cpu0_DTLB WRITEBACK ACCESS:          0  HIT:          0  MISS:          0
cpu0_DTLB TRANSLATION ACCESS:          0  HIT:          0  MISS:          0
cpu0_DTLB PREFETCH  REQUESTED:          0  ISSUED:          0  USEFUL:          0  USELESS:          0
cpu0_DTLB AVERAGE MISS LATENCY: 9.27083 cycles
cpu0_ITLB TOTAL     ACCESS:    1659024  HIT:    1558022  MISS:     101002
cpu0_ITLB LOAD      ACCESS:    1659024  HIT:    1558022  MISS:     101002
cpu0_ITLB RFO       ACCESS:          0  HIT:          0  MISS:          0
cpu0_ITLB PREFETCH  ACCESS:          0  HIT:          0  MISS:          0
cpu0_ITLB WRITEBACK ACCESS:          0  HIT:          0  MISS:          0
cpu0_ITLB TRANSLATION ACCESS:          0  HIT:          0  MISS:          0
cpu0_ITLB PREFETCH  REQUESTED:          0  ISSUED:          0  USEFUL:          0  USELESS:          0
cpu0_ITLB AVERAGE MISS LATENCY: 9.01408 cycles
cpu0_L1I TOTAL     ACCESS:    3119695  HIT:    2725835  MISS:     393860
cpu0_L1I LOAD      ACCESS:    3119695  HIT:    2725835  MISS:     393860
cpu0_L1I RFO       ACCESS:          0  HIT:          0  MISS:          0
cpu0_L1I PREFETCH  ACCESS:          0  HIT:          0  MISS:          0
cpu0_L1I WRITEBACK ACCESS:          0  HIT:          0  MISS:          0
cpu0_L1I TRANSLATION ACCESS:          0  HIT:          0  MISS:          0
cpu0_L1I PREFETCH  REQUESTED:          0  ISSUED:          0  USEFUL:          0  USELESS:          0
cpu0_L1I AVERAGE MISS LATENCY: 11.4006 cycles
cpu0_STLB TOTAL     ACCESS:     226058  HIT:     225812  MISS:        246
cpu0_STLB LOAD      ACCESS:     214233  HIT:     213989  MISS:        244
cpu0_STLB RFO       ACCESS:      11825  HIT:      11823  MISS:          2
cpu0_STLB PREFETCH  ACCESS:          0  HIT:          0  MISS:          0
cpu0_STLB WRITEBACK ACCESS:          0  HIT:          0  MISS:          0
cpu0_STLB TRANSLATION ACCESS:          0  HIT:          0  MISS:          0
cpu0_STLB PREFETCH  REQUESTED:        605  ISSUED:          0  USEFUL:          0  USELESS:          0
cpu0_STLB AVERAGE MISS LATENCY: 123.61 cycles
cpu0_L1D TOTAL     ACCESS:   10639632  HIT:   10601983  MISS:      37649
cpu0_L1D LOAD      ACCESS:    3218444  HIT:    3205077  MISS:      13367
cpu0_L1D RFO       ACCESS:    4223767  HIT:    4219133  MISS:       4634
cpu0_L1D PREFETCH  ACCESS:    3197185  HIT:    3177556  MISS:      19629
cpu0_L1D WRITEBACK ACCESS:          0  HIT:          0  MISS:          0
cpu0_L1D TRANSLATION ACCESS:        236  HIT:        217  MISS:         19
cpu0_L1D PREFETCH  REQUESTED:    3219039  ISSUED:    3202216  USEFUL:      12051  USELESS:       7772
cpu0_L1D AVERAGE MISS LATENCY: 48.7502 cycles
cpu0_L2C TOTAL     ACCESS:     439257  HIT:     434922  MISS:       4335
cpu0_L2C LOAD      ACCESS:     407049  HIT:     404707  MISS:       2342
cpu0_L2C RFO       ACCESS:       4632  HIT:       4461  MISS:        171
cpu0_L2C PREFETCH  ACCESS:      19809  HIT:      17995  MISS:       1814
cpu0_L2C WRITEBACK ACCESS:       7748  HIT:       7746  MISS:          2
cpu0_L2C TRANSLATION ACCESS:         19  HIT:         13  MISS:          6
cpu0_L2C PREFETCH  REQUESTED:          0  ISSUED:          0  USEFUL:          0  USELESS:          0
cpu0_L2C AVERAGE MISS LATENCY: 378.358 cycles
LLC TOTAL     ACCESS:       6200  HIT:       2474  MISS:       3726
LLC LOAD      ACCESS:       2342  HIT:        370  MISS:       1972
LLC RFO       ACCESS:        171  HIT:         31  MISS:        140
LLC PREFETCH  ACCESS:       1814  HIT:        213  MISS:       1601
LLC WRITEBACK ACCESS:       1867  HIT:       1856  MISS:         11
LLC TRANSLATION ACCESS:          6  HIT:          4  MISS:          2
LLC PREFETCH  REQUESTED:          0  ISSUED:          0  USEFUL:          0  USELESS:          0
LLC AVERAGE MISS LATENCY: 415.777 cycles

DRAM Statistics
 CHANNEL 0
 RQ ROW_BUFFER_HIT:        221  ROW_BUFFER_MISS:       3494
 DBUS AVG_CONGESTED_CYCLE:    3.94328
 WQ ROW_BUFFER_HIT:         39  ROW_BUFFER_MISS:       2259  FULL:          0


CPU 0 Branch Prediction Accuracy: 97.4984% MPKI: 4.21604 Average ROB Occupancy at Mispredict: 234.58
Branch type MPKI
BRANCH_DIRECT_JUMP: 0.001
BRANCH_INDIRECT: 0
BRANCH_CONDITIONAL: 4.0288
BRANCH_DIRECT_CALL: 0.00296
BRANCH_INDIRECT_CALL: 0.00768
BRANCH_RETURN: 0.1756

