
*** ChampSim Multicore Out-of-Order Simulator ***

Warmup Instructions: 25000000
Simulation Instructions: 25000000
Number of CPUs: 1
Off-chip DRAM Size: 4 GiB Channels: 1 Width: 64-bit Data Rate: 3200 MT/s

VirtualMemory physical capacity: 8588881920 num_ppages: 2096895
VirtualMemory page size: 4096 log2_page_size: 12

CPU 0 runs ipc1_public/server_004.champsimtrace.xz
Basic BTB sets: 1024 ways: 8 indirect buffer size: 4096 RAS size: 64
CPU 0 Entangling TLB prefetcher
cpu0_L1D next line prefetcher
WARNING: The extended signature CACHE::prefetch_line(ip, base_addr, pf_addr, fill_this_level, prefetch_metadata) is deprecated.
WARNING: Use CACHE::prefetch_line(pf_addr, fill_this_level, prefetch_metadata) instead.
Heartbeat CPU 0 instructions: 10000002 cycles: 2634311 heartbeat IPC: 3.79606 cumulative IPC: 3.79606 (Simulation time: 0 hr 0 min 19 sec) 
Heartbeat CPU 0 instructions: 20000001 cycles: 5271292 heartbeat IPC: 3.79222 cumulative IPC: 3.79414 (Simulation time: 0 hr 0 min 40 sec) 

Warmup complete CPU 0 instructions: 25000001 cycles: 6935222 (Simulation time: 0 hr 0 min 56 sec) 

Heartbeat CPU 0 instructions: 30000000 cycles: 18164911 heartbeat IPC: 0.775577 cumulative IPC: 0.445248 (Simulation time: 0 hr 1 min 40 sec) 
Heartbeat CPU 0 instructions: 40000000 cycles: 29828545 heartbeat IPC: 0.857366 cumulative IPC: 0.655213 (Simulation time: 0 hr 2 min 34 sec) 
Heartbeat CPU 0 instructions: 50000000 cycles: 37540502 heartbeat IPC: 1.29669 cumulative IPC: 0.816853 (Simulation time: 0 hr 3 min 17 sec) 
Finished CPU 0 instructions: 25000003 cycles: 30605281 cumulative IPC: 0.816853 (Simulation time: 0 hr 3 min 17 sec) 

ChampSim completed all CPUs

Region of Interest Statistics

CPU 0 cumulative IPC: 0.816853 instructions: 25000003 cycles: 30605281
cpu0_DTLB TOTAL     ACCESS:    5317374  HIT:    4293003  MISS:    1024371
cpu0_DTLB LOAD      ACCESS:    3824098  HIT:    2814349  MISS:    1009749
cpu0_DTLB RFO       ACCESS:    1493276  HIT:    1478654  MISS:      14622
cpu0_DTLB PREFETCH  ACCESS:          0  HIT:          0  MISS:          0
cpu0_DTLB WRITEBACK ACCESS:          0  HIT:          0  MISS:          0
cpu0_DTLB TRANSLATION ACCESS:          0  HIT:          0  MISS:          0
cpu0_DTLB PREFETCH  REQUESTED:          0  ISSUED:          0  USEFUL:          0  USELESS:          0
cpu0_DTLB AVERAGE MISS LATENCY: 9.55453 cycles
cpu0_ITLB TOTAL     ACCESS:    1826032  HIT:    1749422  MISS:      76610
cpu0_ITLB LOAD      ACCESS:    1826032  HIT:    1749422  MISS:      76610
cpu0_ITLB RFO       ACCESS:          0  HIT:          0  MISS:          0
cpu0_ITLB PREFETCH  ACCESS:          0  HIT:          0  MISS:          0
cpu0_ITLB WRITEBACK ACCESS:          0  HIT:          0  MISS:          0
cpu0_ITLB TRANSLATION ACCESS:          0  HIT:          0  MISS:          0
cpu0_ITLB PREFETCH  REQUESTED:          0  ISSUED:          0  USEFUL:          0  USELESS:          0
cpu0_ITLB AVERAGE MISS LATENCY: 11.2067 cycles
cpu0_L1I TOTAL     ACCESS:    2609865  HIT:    2129799  MISS:     480066
cpu0_L1I LOAD      ACCESS:    2609865  HIT:    2129799  MISS:     480066
cpu0_L1I RFO       ACCESS:          0  HIT:          0  MISS:          0
cpu0_L1I PREFETCH  ACCESS:          0  HIT:          0  MISS:          0
cpu0_L1I WRITEBACK ACCESS:          0  HIT:          0  MISS:          0
cpu0_L1I TRANSLATION ACCESS:          0  HIT:          0  MISS:          0
cpu0_L1I PREFETCH  REQUESTED:          0  ISSUED:          0  USEFUL:          0  USELESS:          0
cpu0_L1I AVERAGE MISS LATENCY: 23.6883 cycles
cpu0_STLB TOTAL     ACCESS:    1100981  HIT:    1051555  MISS:      49426
cpu0_STLB LOAD      ACCESS:    1086359  HIT:    1038765  MISS:      47594
cpu0_STLB RFO       ACCESS:      14622  HIT:      12790  MISS:       1832
cpu0_STLB PREFETCH  ACCESS:          0  HIT:          0  MISS:          0
cpu0_STLB WRITEBACK ACCESS:          0  HIT:          0  MISS:          0
cpu0_STLB TRANSLATION ACCESS:          0  HIT:          0  MISS:          0
cpu0_STLB PREFETCH  REQUESTED:     257730  ISSUED:        128  USEFUL:          0  USELESS:          0
cpu0_STLB AVERAGE MISS LATENCY: 14.7413 cycles
cpu0_L1D TOTAL     ACCESS:   11490903  HIT:    8774518  MISS:    2716385
cpu0_L1D LOAD      ACCESS:    4599844  HIT:    3248667  MISS:    1351177
cpu0_L1D RFO       ACCESS:    2300710  HIT:    2240269  MISS:      60441
cpu0_L1D PREFETCH  ACCESS:    4542295  HIT:    3244403  MISS:    1297892
cpu0_L1D WRITEBACK ACCESS:          0  HIT:          0  MISS:          0
cpu0_L1D TRANSLATION ACCESS:      48054  HIT:      41179  MISS:       6875
cpu0_L1D PREFETCH  REQUESTED:    4614309  ISSUED:    4601611  USEFUL:     144842  USELESS:    1163127
cpu0_L1D AVERAGE MISS LATENCY: 15.0025 cycles
cpu0_L2C TOTAL     ACCESS:    3321655  HIT:    2860398  MISS:     461257
cpu0_L2C LOAD      ACCESS:    1821438  HIT:    1491032  MISS:     330406
cpu0_L2C RFO       ACCESS:      60089  HIT:      40399  MISS:      19690
cpu0_L2C PREFETCH  ACCESS:    1308018  HIT:    1198726  MISS:     109292
cpu0_L2C WRITEBACK ACCESS:     125235  HIT:     124785  MISS:        450
cpu0_L2C TRANSLATION ACCESS:       6875  HIT:       5456  MISS:       1419
cpu0_L2C PREFETCH  REQUESTED:          0  ISSUED:          0  USEFUL:          0  USELESS:          0
cpu0_L2C AVERAGE MISS LATENCY: 36.5576 cycles
LLC TOTAL     ACCESS:     522057  HIT:     482992  MISS:      39065
LLC LOAD      ACCESS:     330405  HIT:     314367  MISS:      16038
LLC RFO       ACCESS:      19688  HIT:      15921  MISS:       3767
LLC PREFETCH  ACCESS:     109291  HIT:      90101  MISS:      19190
LLC WRITEBACK ACCESS:      61254  HIT:      61234  MISS:         20
LLC TRANSLATION ACCESS:       1419  HIT:       1369  MISS:         50
LLC PREFETCH  REQUESTED:          0  ISSUED:          0  USEFUL:          0  USELESS:          0
LLC AVERAGE MISS LATENCY: 183.917 cycles
CPU 0 TLB Entangling prefetcher final stats
ACCESS:0 HIT:0 MISS:0
IP accesses: 8b83 8b83000 13937 / 1086359
IP misses: 65ff 65ff000 60 / 47594
IP hits: 0 0 0 / 0
IP late: 117e 117e000 1 / 6
IP wrong: 0 0 0 / 0
miss rate: 0.0438106
coverage: 0
coverage_late: 0.000126066
accuracy: 0
accuracy_late: 1
discarded: 0
evicts entangled j table: 0
evicts entangled k table: 14380
max bb size: 9
formats: 14788 2389 8888 4595 2729 3232 0 
hist_lookups: 56664 39550 8340 1925 559 171 84 50 37 24 12 3 6 3 0 0 3 107 
hist_lookups_evict: 0.00278971 %
hist_lookups_shortlat: 0.0994997 %
bb_found_hist: 0 14801 99 1 0 0 0 0 0 0 0 0 0 0 0 0 
bb_found_summary: 15002 14901 1.00678
entangled_found_hist: 0 109144 27856 20544 1643 100 0 0 
entangled_found_summary: 233560 159287 1.46628
bb_ent_found_hist: 0 9388 88 18 0 5 0 0 0 0 0 0 0 0 0 0 
bb_ent_found_summary: 9643 9499 1.01516

DRAM Statistics
 CHANNEL 0
 RQ ROW_BUFFER_HIT:       7349  ROW_BUFFER_MISS:      31694
 DBUS AVG_CONGESTED_CYCLE:    3.76228
 WQ ROW_BUFFER_HIT:       2818  ROW_BUFFER_MISS:       9713  FULL:          0


CPU 0 Branch Prediction Accuracy: 96.4058% MPKI: 7.9138 Average ROB Occupancy at Mispredict: 164.034
Branch type MPKI
BRANCH_DIRECT_JUMP: 0.22428
BRANCH_INDIRECT: 0.34604
BRANCH_CONDITIONAL: 5.86076
BRANCH_DIRECT_CALL: 0.41356
BRANCH_INDIRECT_CALL: 0.12748
BRANCH_RETURN: 0.94168

