
*** ChampSim Multicore Out-of-Order Simulator ***

Warmup Instructions: 25000000
Simulation Instructions: 25000000
Number of CPUs: 1
Off-chip DRAM Size: 4 GiB Channels: 1 Width: 64-bit Data Rate: 3200 MT/s

VirtualMemory physical capacity: 8588881920 num_ppages: 2096895
VirtualMemory page size: 4096 log2_page_size: 12

CPU 0 runs ipc1_public/server_004.champsimtrace.xz
Basic BTB sets: 1024 ways: 8 indirect buffer size: 4096 RAS size: 64
CPU 0 Improved Entangling prefetcher
cpu0_L1D next line prefetcher
WARNING: The extended signature CACHE::prefetch_line(ip, base_addr, pf_addr, fill_this_level, prefetch_metadata) is deprecated.
WARNING: Use CACHE::prefetch_line(pf_addr, fill_this_level, prefetch_metadata) instead.
Heartbeat CPU 0 instructions: 10000002 cycles: 2630922 heartbeat IPC: 3.80095 cumulative IPC: 3.80095 (Simulation time: 0 hr 0 min 21 sec) 
Heartbeat CPU 0 instructions: 20000001 cycles: 5264823 heartbeat IPC: 3.79665 cumulative IPC: 3.7988 (Simulation time: 0 hr 0 min 43 sec) 

Warmup complete CPU 0 instructions: 25000001 cycles: 6928425 (Simulation time: 0 hr 1 min 0 sec) 

Heartbeat CPU 0 instructions: 30000000 cycles: 18158113 heartbeat IPC: 0.775597 cumulative IPC: 0.445248 (Simulation time: 0 hr 1 min 44 sec) 
Heartbeat CPU 0 instructions: 40000000 cycles: 29744366 heartbeat IPC: 0.863092 cumulative IPC: 0.657435 (Simulation time: 0 hr 2 min 33 sec) 
Heartbeat CPU 0 instructions: 50000000 cycles: 37321754 heartbeat IPC: 1.31972 cumulative IPC: 0.822549 (Simulation time: 0 hr 3 min 9 sec) 
Finished CPU 0 instructions: 25000003 cycles: 30393330 cumulative IPC: 0.822549 (Simulation time: 0 hr 3 min 9 sec) 

ChampSim completed all CPUs

Region of Interest Statistics

CPU 0 cumulative IPC: 0.822549 instructions: 25000003 cycles: 30393330
cpu0_DTLB TOTAL     ACCESS:    5310902  HIT:    4286429  MISS:    1024473
cpu0_DTLB LOAD      ACCESS:    3819351  HIT:    2809532  MISS:    1009819
cpu0_DTLB RFO       ACCESS:    1491551  HIT:    1476897  MISS:      14654
cpu0_DTLB PREFETCH  ACCESS:          0  HIT:          0  MISS:          0
cpu0_DTLB WRITEBACK ACCESS:          0  HIT:          0  MISS:          0
cpu0_DTLB TRANSLATION ACCESS:          0  HIT:          0  MISS:          0
cpu0_DTLB PREFETCH  REQUESTED:          0  ISSUED:          0  USEFUL:          0  USELESS:          0
cpu0_DTLB AVERAGE MISS LATENCY: 9.54485 cycles
cpu0_ITLB TOTAL     ACCESS:    1826464  HIT:    1749854  MISS:      76610
cpu0_ITLB LOAD      ACCESS:    1826464  HIT:    1749854  MISS:      76610
cpu0_ITLB RFO       ACCESS:          0  HIT:          0  MISS:          0
cpu0_ITLB PREFETCH  ACCESS:          0  HIT:          0  MISS:          0
cpu0_ITLB WRITEBACK ACCESS:          0  HIT:          0  MISS:          0
cpu0_ITLB TRANSLATION ACCESS:          0  HIT:          0  MISS:          0
cpu0_ITLB PREFETCH  REQUESTED:          0  ISSUED:          0  USEFUL:          0  USELESS:          0
cpu0_ITLB AVERAGE MISS LATENCY: 11.2028 cycles
cpu0_L1I TOTAL     ACCESS:    3371881  HIT:    2884427  MISS:     487454
cpu0_L1I LOAD      ACCESS:    2611609  HIT:    2166617  MISS:     444992
cpu0_L1I RFO       ACCESS:          0  HIT:          0  MISS:          0
cpu0_L1I PREFETCH  ACCESS:     760272  HIT:     717810  MISS:      42462
cpu0_L1I WRITEBACK ACCESS:          0  HIT:          0  MISS:          0
cpu0_L1I TRANSLATION ACCESS:          0  HIT:          0  MISS:          0
cpu0_L1I PREFETCH  REQUESTED:     823376  ISSUED:     776155  USEFUL:      42981  USELESS:       2363
cpu0_L1I AVERAGE MISS LATENCY: 23.4574 cycles
cpu0_STLB TOTAL     ACCESS:    1101083  HIT:    1051654  MISS:      49429
cpu0_STLB LOAD      ACCESS:    1086429  HIT:    1038838  MISS:      47591
cpu0_STLB RFO       ACCESS:      14654  HIT:      12816  MISS:       1838
cpu0_STLB PREFETCH  ACCESS:          0  HIT:          0  MISS:          0
cpu0_STLB WRITEBACK ACCESS:          0  HIT:          0  MISS:          0
cpu0_STLB TRANSLATION ACCESS:          0  HIT:          0  MISS:          0
cpu0_STLB PREFETCH  REQUESTED:          0  ISSUED:          0  USEFUL:          0  USELESS:          0
cpu0_STLB AVERAGE MISS LATENCY: 14.5335 cycles
cpu0_L1D TOTAL     ACCESS:   11477788  HIT:    8761361  MISS:    2716427
cpu0_L1D LOAD      ACCESS:    4594050  HIT:    3242757  MISS:    1351293
cpu0_L1D RFO       ACCESS:    2299876  HIT:    2239437  MISS:      60439
cpu0_L1D PREFETCH  ACCESS:    4535800  HIT:    3237983  MISS:    1297817
cpu0_L1D WRITEBACK ACCESS:          0  HIT:          0  MISS:          0
cpu0_L1D TRANSLATION ACCESS:      48062  HIT:      41184  MISS:       6878
cpu0_L1D PREFETCH  REQUESTED:    4608754  ISSUED:    4595773  USEFUL:     144639  USELESS:    1163367
cpu0_L1D AVERAGE MISS LATENCY: 14.9748 cycles
cpu0_L2C TOTAL     ACCESS:    3329055  HIT:    2866977  MISS:     462078
cpu0_L2C LOAD      ACCESS:    1783515  HIT:    1464783  MISS:     318732
cpu0_L2C RFO       ACCESS:      60050  HIT:      40317  MISS:      19733
cpu0_L2C PREFETCH  ACCESS:    1353404  HIT:    1231643  MISS:     121761
cpu0_L2C WRITEBACK ACCESS:     125208  HIT:     124762  MISS:        446
cpu0_L2C TRANSLATION ACCESS:       6878  HIT:       5472  MISS:       1406
cpu0_L2C PREFETCH  REQUESTED:          0  ISSUED:          0  USEFUL:          0  USELESS:          0
cpu0_L2C AVERAGE MISS LATENCY: 36.4488 cycles
LLC TOTAL     ACCESS:     522955  HIT:     483587  MISS:      39368
LLC LOAD      ACCESS:     318730  HIT:     302635  MISS:      16095
LLC RFO       ACCESS:      19733  HIT:      15982  MISS:       3751
LLC PREFETCH  ACCESS:     121760  HIT:     102295  MISS:      19465
LLC WRITEBACK ACCESS:      61326  HIT:      61314  MISS:         12
LLC TRANSLATION ACCESS:       1406  HIT:       1361  MISS:         45
LLC PREFETCH  REQUESTED:          0  ISSUED:          0  USEFUL:          0  USELESS:          0
LLC AVERAGE MISS LATENCY: 181.547 cycles
CPU 0 L1I EPI prefetcher final stats
IP accesses: 3a98 ea600 41515 / 5740596
IP misses: 1f9b 7e6c0 1275 / 1064562
IP hits: 0 0 0 / 0
IP late: 891c 224700 536 / 29694
IP wrong: abf3 2afcc0 398 / 9542
miss rate: 0.185445
coverage: 0
coverage_late: 0.0278932
accuracy: 0
accuracy_late: 0.756805
discarded: 0
evicts entangled j table: 0
evicts entangled k table: 45
max bb size: 9
max xpq size: 0
formats: 152 184 503 117 93 401 0 
history table size: 0 bytes; 0 KB
cycles_no_operate: 0 %
bb_found_hist: 0 213171 132378 60060 1384 2331 1020 0 0 74 0 0 0 0 0 0 0 0 0 0 0 0 0 0 0 0 0 0 0 0 0 0 0 0 0 0 0 0 0 0 0 0 0 0 0 0 0 0 0 0 0 0 0 0 0 0 0 0 0 0 0 0 0 0 
bb_found_summary: 682084 410418 1.66193
entangled_found_hist: 0 82987 20084 41375 2544 317 36 0 
entangled_found_summary: 259257 147343 1.75955
bb_ent_found_hist: 0 72942 62886 26425 3991 1465 17236 0 0 77 0 0 0 0 0 0 0 0 0 0 0 0 0 0 0 0 0 0 0 0 0 0 0 0 0 0 0 0 0 0 0 0 0 0 0 0 0 0 0 0 0 0 0 0 0 0 0 0 0 0 0 0 0 0 
bb_ent_found_summary: 405387 185022 2.19102
percent_wrong_path_info_recorded: 99.7336%

DRAM Statistics
 CHANNEL 0
 RQ ROW_BUFFER_HIT:       7445  ROW_BUFFER_MISS:      31908
 DBUS AVG_CONGESTED_CYCLE:     3.7669
 WQ ROW_BUFFER_HIT:       2841  ROW_BUFFER_MISS:       9848  FULL:          0


CPU 0 Branch Prediction Accuracy: 96.4058% MPKI: 7.9138 Average ROB Occupancy at Mispredict: 165.379
Branch type MPKI
BRANCH_DIRECT_JUMP: 0.22428
BRANCH_INDIRECT: 0.34604
BRANCH_CONDITIONAL: 5.86076
BRANCH_DIRECT_CALL: 0.41356
BRANCH_INDIRECT_CALL: 0.12748
BRANCH_RETURN: 0.94168

