WARNING: physical memory size is smaller than virtual memory size.
WARNING: option --warmup_instructions is deprecated. Use --warmup-instructions instead.
WARNING: option --simulation_instructions is deprecated. Use --simulation-instructions instead.

*** ChampSim Multicore Out-of-Order Simulator ***
Warmup Instructions: 25000000
Simulation Instructions: 25000000
Number of CPUs: 1
Page size: 4096

CPU 0 Entangling prefetcher
Off-chip DRAM Size: 4 GiB Channels: 1 Width: 64-bit Data Race: 3200 MT/s
Heartbeat CPU 0 instructions: 10000003 cycles: 2528802 heartbeat IPC: 3.954 cumulative IPC: 3.954 (Simulation time: 00 hr 00 min 27 sec)
Heartbeat CPU 0 instructions: 20000001 cycles: 5078073 heartbeat IPC: 3.923 cumulative IPC: 3.939 (Simulation time: 00 hr 00 min 54 sec)
Warmup finished CPU 0 instructions: 25000003 cycles: 6339492 cumulative IPC: 3.944 (Simulation time: 00 hr 01 min 08 sec)
Warmup complete CPU 0 instructions: 25000003 cycles: 6339492 cumulative IPC: 3.944 (Simulation time: 00 hr 01 min 08 sec)
Heartbeat CPU 0 instructions: 30000002 cycles: 8036924 heartbeat IPC: 3.38 cumulative IPC: 2.946 (Simulation time: 00 hr 01 min 25 sec)
Heartbeat CPU 0 instructions: 40000004 cycles: 10761325 heartbeat IPC: 3.671 cumulative IPC: 3.392 (Simulation time: 00 hr 01 min 58 sec)
Heartbeat CPU 0 instructions: 50000003 cycles: 13479073 heartbeat IPC: 3.68 cumulative IPC: 3.502 (Simulation time: 00 hr 02 min 31 sec)
Simulation finished CPU 0 instructions: 25000000 cycles: 7139582 cumulative IPC: 3.502 (Simulation time: 00 hr 02 min 31 sec)
Simulation complete CPU 0 instructions: 25000000 cycles: 7139582 cumulative IPC: 3.502 (Simulation time: 00 hr 02 min 31 sec)

ChampSim completed all CPUs

=== Simulation ===
CPU 0 runs ipc1_public/server_002.champsimtrace.xz
Region of Interest Statistics

CPU 0 cumulative IPC: 3.502 instructions: 25000000 cycles: 7139582
CPU 0 Branch Prediction Accuracy: 99.74% MPKI: 0.4396 Average ROB Occupancy at Mispredict: 126.9
Branch type MPKI
BRANCH_DIRECT_JUMP: 0.00172
BRANCH_INDIRECT: 0
BRANCH_CONDITIONAL: 0.246
BRANCH_DIRECT_CALL: 0.00472
BRANCH_INDIRECT_CALL: 0.00804
BRANCH_RETURN: 0.179

LLC TOTAL        ACCESS:       6256 HIT:       2307 MISS:       3949
LLC LOAD         ACCESS:       1854 HIT:        134 MISS:       1720
LLC RFO          ACCESS:        183 HIT:         43 MISS:        140
LLC PREFETCH     ACCESS:       2207 HIT:        315 MISS:       1892
LLC WRITE        ACCESS:       1816 HIT:       1805 MISS:         11
LLC TRANSLATION  ACCESS:        196 HIT:         10 MISS:        186
LLC PREFETCH REQUESTED:          0 ISSUED:          0 USEFUL:          0 USELESS:          0
LLC AVERAGE MISS LATENCY: 671.9 cycles
cpu0_DTLB TOTAL        ACCESS:    5513211 HIT:    5312899 MISS:     200312
cpu0_DTLB LOAD         ACCESS:    5513211 HIT:    5312899 MISS:     200312
cpu0_DTLB RFO          ACCESS:          0 HIT:          0 MISS:          0
cpu0_DTLB PREFETCH     ACCESS:          0 HIT:          0 MISS:          0
cpu0_DTLB WRITE        ACCESS:          0 HIT:          0 MISS:          0
cpu0_DTLB TRANSLATION  ACCESS:          0 HIT:          0 MISS:          0
cpu0_DTLB PREFETCH REQUESTED:          0 ISSUED:          0 USEFUL:          0 USELESS:          0
cpu0_DTLB AVERAGE MISS LATENCY: 4.581 cycles
cpu0_ITLB TOTAL        ACCESS:    5861649 HIT:    5505714 MISS:     355935
cpu0_ITLB LOAD         ACCESS:    5861649 HIT:    5505714 MISS:     355935
cpu0_ITLB RFO          ACCESS:          0 HIT:          0 MISS:          0
cpu0_ITLB PREFETCH     ACCESS:          0 HIT:          0 MISS:          0
cpu0_ITLB WRITE        ACCESS:          0 HIT:          0 MISS:          0
cpu0_ITLB TRANSLATION  ACCESS:          0 HIT:          0 MISS:          0
cpu0_ITLB PREFETCH REQUESTED:          0 ISSUED:          0 USEFUL:          0 USELESS:          0
cpu0_ITLB AVERAGE MISS LATENCY: 2.201 cycles
cpu0_L1D TOTAL        ACCESS:    9767562 HIT:    9723938 MISS:      43624
cpu0_L1D LOAD         ACCESS:    3489342 HIT:    3469436 MISS:      19906
cpu0_L1D RFO          ACCESS:          0 HIT:          0 MISS:          0
cpu0_L1D PREFETCH     ACCESS:    2038420 HIT:    2019113 MISS:      19307
cpu0_L1D WRITE        ACCESS:    4239498 HIT:    4235340 MISS:       4158
cpu0_L1D TRANSLATION  ACCESS:        302 HIT:         49 MISS:        253
cpu0_L1D PREFETCH REQUESTED:    3491704 ISSUED:    2038419 USEFUL:       1855 USELESS:      13767
cpu0_L1D AVERAGE MISS LATENCY: 59.04 cycles
cpu0_L1I TOTAL        ACCESS:    8330825 HIT:    7680307 MISS:     650518
cpu0_L1I LOAD         ACCESS:    3809988 HIT:    3428447 MISS:     381541
cpu0_L1I RFO          ACCESS:          0 HIT:          0 MISS:          0
cpu0_L1I PREFETCH     ACCESS:    4520837 HIT:    4251860 MISS:     268977
cpu0_L1I WRITE        ACCESS:          0 HIT:          0 MISS:          0
cpu0_L1I TRANSLATION  ACCESS:          0 HIT:          0 MISS:          0
cpu0_L1I PREFETCH REQUESTED:   15607814 ISSUED:    4520837 USEFUL:     199823 USELESS:      50410
cpu0_L1I AVERAGE MISS LATENCY: 7.224 cycles
cpu0_L2C TOTAL        ACCESS:     521347 HIT:     516907 MISS:       4440
cpu0_L2C LOAD         ACCESS:     247025 HIT:     245171 MISS:       1854
cpu0_L2C RFO          ACCESS:       1165 HIT:        982 MISS:        183
cpu0_L2C PREFETCH     ACCESS:     265865 HIT:     263658 MISS:       2207
cpu0_L2C WRITE        ACCESS:       7068 HIT:       7068 MISS:          0
cpu0_L2C TRANSLATION  ACCESS:        224 HIT:         28 MISS:        196
cpu0_L2C PREFETCH REQUESTED:          0 ISSUED:          0 USEFUL:          0 USELESS:          0
cpu0_L2C AVERAGE MISS LATENCY: 618.5 cycles
cpu0_STLB TOTAL        ACCESS:     270775 HIT:     270521 MISS:        254
cpu0_STLB LOAD         ACCESS:     270775 HIT:     270521 MISS:        254
cpu0_STLB RFO          ACCESS:          0 HIT:          0 MISS:          0
cpu0_STLB PREFETCH     ACCESS:          0 HIT:          0 MISS:          0
cpu0_STLB WRITE        ACCESS:          0 HIT:          0 MISS:          0
cpu0_STLB TRANSLATION  ACCESS:          0 HIT:          0 MISS:          0
cpu0_STLB PREFETCH REQUESTED:          0 ISSUED:          0 USEFUL:          0 USELESS:          0
cpu0_STLB AVERAGE MISS LATENCY: 912.9 cycles

DRAM Statistics

Channel 0 RQ ROW_BUFFER_HIT:        909
  ROW_BUFFER_MISS:       3029
 AVG DBUS CONGESTED CYCLE: 3.972
WQ ROW_BUFFER_HIT: Channel 0 
  ROW_BUFFER_MISS:         99
  FULL:       2654
CPU 0 L1I Entangling prefetcher final stats
IP accesses: 13fe 4ff80 72607 / 7546860
IP misses: 13e5 4f940 24450 / 599973
IP hits: 13e6 4f980 8825 / 468538
IP late: 4160 105800 7614 / 279169
IP wrong: 20c0 83000 7968 / 128897
miss rate: 0.0794997
coverage: 0.438497
coverage_late: 0.699766
accuracy: 0.534493
accuracy_late: 0.852959
discarded: 0
evicts entangled j table: 0
evicts entangled k table: 18532
max bb size: 18
formats: 787 0 23343 4969 1761 11345 0 
hist_lookups: 51834 58688 44599 30962 15568 9164 11764 8603 6214 3452 2733 1316 1904 520 500 0 0 15067 
hist_lookups_evict: 0 %
hist_lookups_shortlat: 5.73134 %
bb_found_hist: 0 1861522 854724 352772 186760 393 31541 4173 14443 14 7434 1754 7612 7293 2 15286 0 0 12120 0 0 0 0 0 0 0 0 0 0 0 0 0 0 0 0 0 0 0 0 0 0 0 0 0 0 0 0 0 0 0 0 0 0 0 0 0 0 0 0 0 0 0 0 0 
bb_found_summary: 6439683 3357843 1.91781
entangled_found_hist: 0 884297 842612 1823072 157968 45692 8646 0 
entangled_found_summary: 8950945 3762287 2.37913
bb_ent_found_hist: 0 2710524 2037785 908826 446468 921 120850 248 32543 13 46274 623 39455 10855 1 21937 0 0 5629 0 0 0 0 0 0 0 0 0 0 0 0 0 0 0 0 0 0 0 0 0 0 0 0 0 0 0 0 0 0 0 0 0 0 0 0 0 0 0 0 0 0 0 0 0 
bb_ent_found_summary: 13804905 6382952 2.16278
