
*** ChampSim Multicore Out-of-Order Simulator ***

Warmup Instructions: 25000000
Simulation Instructions: 25000000
Number of CPUs: 1
Off-chip DRAM Size: 4 GiB Channels: 1 Width: 64-bit Data Rate: 3200 MT/s

VirtualMemory physical capacity: 8588881920 num_ppages: 2096895
VirtualMemory page size: 4096 log2_page_size: 12

CPU 0 runs ipc1_public/server_002.champsimtrace.xz
Basic BTB sets: 1024 ways: 8 indirect buffer size: 4096 RAS size: 64
CPU 0 Improved Entangling prefetcher
cpu0_L1D next line prefetcher
WARNING: The extended signature CACHE::prefetch_line(ip, base_addr, pf_addr, fill_this_level, prefetch_metadata) is deprecated.
WARNING: Use CACHE::prefetch_line(pf_addr, fill_this_level, prefetch_metadata) instead.
Heartbeat CPU 0 instructions: 10000001 cycles: 2504078 heartbeat IPC: 3.99349 cumulative IPC: 3.99349 (Simulation time: 0 hr 0 min 25 sec) 
Heartbeat CPU 0 instructions: 20000000 cycles: 5033311 heartbeat IPC: 3.95377 cumulative IPC: 3.97353 (Simulation time: 0 hr 0 min 51 sec) 

Warmup complete CPU 0 instructions: 25000004 cycles: 6283312 (Simulation time: 0 hr 1 min 4 sec) 

Heartbeat CPU 0 instructions: 30000001 cycles: 10261444 heartbeat IPC: 1.91273 cumulative IPC: 1.25687 (Simulation time: 0 hr 1 min 28 sec) 
Heartbeat CPU 0 instructions: 40000004 cycles: 17601575 heartbeat IPC: 1.36237 cumulative IPC: 1.32529 (Simulation time: 0 hr 2 min 18 sec) 
Heartbeat CPU 0 instructions: 50000000 cycles: 24940254 heartbeat IPC: 1.36264 cumulative IPC: 1.33998 (Simulation time: 0 hr 3 min 7 sec) 
Finished CPU 0 instructions: 25000000 cycles: 18656946 cumulative IPC: 1.33998 (Simulation time: 0 hr 3 min 7 sec) 

ChampSim completed all CPUs

Region of Interest Statistics

CPU 0 cumulative IPC: 1.33998 instructions: 25000000 cycles: 18656946
cpu0_DTLB TOTAL     ACCESS:    5224044  HIT:    5100401  MISS:     123643
cpu0_DTLB LOAD      ACCESS:    2638957  HIT:    2527141  MISS:     111816
cpu0_DTLB RFO       ACCESS:    2585087  HIT:    2573260  MISS:      11827
cpu0_DTLB PREFETCH  ACCESS:          0  HIT:          0  MISS:          0
cpu0_DTLB WRITEBACK ACCESS:          0  HIT:          0  MISS:          0
cpu0_DTLB TRANSLATION ACCESS:          0  HIT:          0  MISS:          0
cpu0_DTLB PREFETCH  REQUESTED:          0  ISSUED:          0  USEFUL:          0  USELESS:          0
cpu0_DTLB AVERAGE MISS LATENCY: 9.29038 cycles
cpu0_ITLB TOTAL     ACCESS:    1654546  HIT:    1553544  MISS:     101002
cpu0_ITLB LOAD      ACCESS:    1654546  HIT:    1553544  MISS:     101002
cpu0_ITLB RFO       ACCESS:          0  HIT:          0  MISS:          0
cpu0_ITLB PREFETCH  ACCESS:          0  HIT:          0  MISS:          0
cpu0_ITLB WRITEBACK ACCESS:          0  HIT:          0  MISS:          0
cpu0_ITLB TRANSLATION ACCESS:          0  HIT:          0  MISS:          0
cpu0_ITLB PREFETCH  REQUESTED:          0  ISSUED:          0  USEFUL:          0  USELESS:          0
cpu0_ITLB AVERAGE MISS LATENCY: 9.01408 cycles
cpu0_L1I TOTAL     ACCESS:    4311449  HIT:    3913788  MISS:     397661
cpu0_L1I LOAD      ACCESS:    3121459  HIT:    2775519  MISS:     345940
cpu0_L1I RFO       ACCESS:          0  HIT:          0  MISS:          0
cpu0_L1I PREFETCH  ACCESS:    1189990  HIT:    1138269  MISS:      51721
cpu0_L1I WRITEBACK ACCESS:          0  HIT:          0  MISS:          0
cpu0_L1I TRANSLATION ACCESS:          0  HIT:          0  MISS:          0
cpu0_L1I PREFETCH  REQUESTED:    1290049  ISSUED:    1219247  USEFUL:      54327  USELESS:       1996
cpu0_L1I AVERAGE MISS LATENCY: 11.3249 cycles
cpu0_STLB TOTAL     ACCESS:     224645  HIT:     224399  MISS:        246
cpu0_STLB LOAD      ACCESS:     212818  HIT:     212574  MISS:        244
cpu0_STLB RFO       ACCESS:      11827  HIT:      11825  MISS:          2
cpu0_STLB PREFETCH  ACCESS:          0  HIT:          0  MISS:          0
cpu0_STLB WRITEBACK ACCESS:          0  HIT:          0  MISS:          0
cpu0_STLB TRANSLATION ACCESS:          0  HIT:          0  MISS:          0
cpu0_STLB PREFETCH  REQUESTED:          0  ISSUED:          0  USEFUL:          0  USELESS:          0
cpu0_STLB AVERAGE MISS LATENCY: 130.854 cycles
cpu0_L1D TOTAL     ACCESS:   10631321  HIT:   10593658  MISS:      37663
cpu0_L1D LOAD      ACCESS:    3214745  HIT:    3201374  MISS:      13371
cpu0_L1D RFO       ACCESS:    4222254  HIT:    4217618  MISS:       4636
cpu0_L1D PREFETCH  ACCESS:    3194089  HIT:    3174452  MISS:      19637
cpu0_L1D WRITEBACK ACCESS:          0  HIT:          0  MISS:          0
cpu0_L1D TRANSLATION ACCESS:        233  HIT:        214  MISS:         19
cpu0_L1D PREFETCH  REQUESTED:    3215351  ISSUED:    3199134  USEFUL:      12043  USELESS:       7792
cpu0_L1D AVERAGE MISS LATENCY: 50.0014 cycles
cpu0_L2C TOTAL     ACCESS:     443072  HIT:     438837  MISS:       4235
cpu0_L2C LOAD      ACCESS:     354529  HIT:     352289  MISS:       2240
cpu0_L2C RFO       ACCESS:       4632  HIT:       4464  MISS:        168
cpu0_L2C PREFETCH  ACCESS:      76144  HIT:      74324  MISS:       1820
cpu0_L2C WRITEBACK ACCESS:       7748  HIT:       7747  MISS:          1
cpu0_L2C TRANSLATION ACCESS:         19  HIT:         13  MISS:          6
cpu0_L2C PREFETCH  REQUESTED:          0  ISSUED:          0  USEFUL:          0  USELESS:          0
cpu0_L2C AVERAGE MISS LATENCY: 407.032 cycles
LLC TOTAL     ACCESS:       5965  HIT:       2165  MISS:       3800
LLC LOAD      ACCESS:       2240  HIT:        267  MISS:       1973
LLC RFO       ACCESS:        168  HIT:         15  MISS:        153
LLC PREFETCH  ACCESS:       1820  HIT:        156  MISS:       1664
LLC WRITEBACK ACCESS:       1731  HIT:       1724  MISS:          7
LLC TRANSLATION ACCESS:          6  HIT:          3  MISS:          3
LLC PREFETCH  REQUESTED:          0  ISSUED:          0  USEFUL:          0  USELESS:          0
LLC AVERAGE MISS LATENCY: 430.228 cycles
CPU 0 L1I EPI prefetcher final stats
IP accesses: 3f41 fd040 78604 / 6527501
IP misses: 3f26 fc980 12250 / 660216
IP hits: 0 0 0 / 0
IP late: 13ff 4ffc0 7562 / 50413
IP wrong: 4031 100c40 3522 / 10106
miss rate: 0.101144
coverage: 0
coverage_late: 0.0763583
accuracy: 0
accuracy_late: 0.833011
discarded: 0
evicts entangled j table: 0
evicts entangled k table: 20
max bb size: 8
max xpq size: 0
formats: 359 0 224 507 288 445 0 
history table size: 0 bytes; 0 KB
cycles_no_operate: 0 %
bb_found_hist: 0 838714 320119 52148 33948 22 4 86 12430 0 0 0 0 0 0 0 0 0 0 0 0 0 0 0 0 0 0 0 0 0 0 0 0 0 0 0 0 0 0 0 0 0 0 0 0 0 0 0 0 0 0 0 0 0 0 0 0 0 0 0 0 0 0 0 
bb_found_summary: 1871364 1257471 1.4882
entangled_found_hist: 0 128867 16719 2741 424 45 16 0 
entangled_found_summary: 172545 148812 1.15948
bb_ent_found_hist: 0 21897 27771 227 24 10 0 0 13897 0 0 0 0 0 0 0 0 0 0 0 0 0 0 0 0 0 0 0 0 0 0 0 0 0 0 0 0 0 0 0 0 0 0 0 0 0 0 0 0 0 0 0 0 0 0 0 0 0 0 0 0 0 0 0 
bb_ent_found_summary: 189442 63826 2.9681
percent_wrong_path_info_recorded: 99.7129%

DRAM Statistics
 CHANNEL 0
 RQ ROW_BUFFER_HIT:        253  ROW_BUFFER_MISS:       3540
 DBUS AVG_CONGESTED_CYCLE:    3.94194
 WQ ROW_BUFFER_HIT:         41  ROW_BUFFER_MISS:       2366  FULL:          0


CPU 0 Branch Prediction Accuracy: 97.4984% MPKI: 4.21604 Average ROB Occupancy at Mispredict: 235.216
Branch type MPKI
BRANCH_DIRECT_JUMP: 0.001
BRANCH_INDIRECT: 0
BRANCH_CONDITIONAL: 4.0288
BRANCH_DIRECT_CALL: 0.00296
BRANCH_INDIRECT_CALL: 0.00768
BRANCH_RETURN: 0.1756

