
*** ChampSim Multicore Out-of-Order Simulator ***

Warmup Instructions: 25000000
Simulation Instructions: 25000000
Number of CPUs: 1
Off-chip DRAM Size: 4 GiB Channels: 1 Width: 64-bit Data Rate: 3200 MT/s

VirtualMemory physical capacity: 8588881920 num_ppages: 2096895
VirtualMemory page size: 4096 log2_page_size: 12

CPU 0 runs ipc1_public/server_004.champsimtrace.xz
Basic BTB sets: 1024 ways: 8 indirect buffer size: 4096 RAS size: 64
cpu0_STLB arbitrary stride prefetcher
cpu0_L1D next line prefetcher
WARNING: The extended signature CACHE::prefetch_line(ip, base_addr, pf_addr, fill_this_level, prefetch_metadata) is deprecated.
WARNING: Use CACHE::prefetch_line(pf_addr, fill_this_level, prefetch_metadata) instead.
Heartbeat CPU 0 instructions: 10000002 cycles: 2634311 heartbeat IPC: 3.79606 cumulative IPC: 3.79606 (Simulation time: 0 hr 0 min 19 sec) 
Heartbeat CPU 0 instructions: 20000001 cycles: 5271292 heartbeat IPC: 3.79222 cumulative IPC: 3.79414 (Simulation time: 0 hr 0 min 39 sec) 

Warmup complete CPU 0 instructions: 25000001 cycles: 6935250 (Simulation time: 0 hr 0 min 57 sec) 

Heartbeat CPU 0 instructions: 30000000 cycles: 18164939 heartbeat IPC: 0.775576 cumulative IPC: 0.445248 (Simulation time: 0 hr 1 min 41 sec) 
Heartbeat CPU 0 instructions: 40000000 cycles: 29823691 heartbeat IPC: 0.857725 cumulative IPC: 0.655353 (Simulation time: 0 hr 2 min 30 sec) 
Heartbeat CPU 0 instructions: 50000000 cycles: 37536158 heartbeat IPC: 1.2966 cumulative IPC: 0.816969 (Simulation time: 0 hr 3 min 7 sec) 
Finished CPU 0 instructions: 25000003 cycles: 30600909 cumulative IPC: 0.816969 (Simulation time: 0 hr 3 min 7 sec) 

ChampSim completed all CPUs

Region of Interest Statistics

CPU 0 cumulative IPC: 0.816969 instructions: 25000003 cycles: 30600909
cpu0_DTLB TOTAL     ACCESS:    5317422  HIT:    4293045  MISS:    1024377
cpu0_DTLB LOAD      ACCESS:    3824143  HIT:    2814400  MISS:    1009743
cpu0_DTLB RFO       ACCESS:    1493279  HIT:    1478645  MISS:      14634
cpu0_DTLB PREFETCH  ACCESS:          0  HIT:          0  MISS:          0
cpu0_DTLB WRITEBACK ACCESS:          0  HIT:          0  MISS:          0
cpu0_DTLB TRANSLATION ACCESS:          0  HIT:          0  MISS:          0
cpu0_DTLB PREFETCH  REQUESTED:          0  ISSUED:          0  USEFUL:          0  USELESS:          0
cpu0_DTLB AVERAGE MISS LATENCY: 9.54283 cycles
cpu0_ITLB TOTAL     ACCESS:    1826024  HIT:    1749414  MISS:      76610
cpu0_ITLB LOAD      ACCESS:    1826024  HIT:    1749414  MISS:      76610
cpu0_ITLB RFO       ACCESS:          0  HIT:          0  MISS:          0
cpu0_ITLB PREFETCH  ACCESS:          0  HIT:          0  MISS:          0
cpu0_ITLB WRITEBACK ACCESS:          0  HIT:          0  MISS:          0
cpu0_ITLB TRANSLATION ACCESS:          0  HIT:          0  MISS:          0
cpu0_ITLB PREFETCH  REQUESTED:          0  ISSUED:          0  USEFUL:          0  USELESS:          0
cpu0_ITLB AVERAGE MISS LATENCY: 11.2054 cycles
cpu0_L1I TOTAL     ACCESS:    2609926  HIT:    2129856  MISS:     480070
cpu0_L1I LOAD      ACCESS:    2609926  HIT:    2129856  MISS:     480070
cpu0_L1I RFO       ACCESS:          0  HIT:          0  MISS:          0
cpu0_L1I PREFETCH  ACCESS:          0  HIT:          0  MISS:          0
cpu0_L1I WRITEBACK ACCESS:          0  HIT:          0  MISS:          0
cpu0_L1I TRANSLATION ACCESS:          0  HIT:          0  MISS:          0
cpu0_L1I PREFETCH  REQUESTED:          0  ISSUED:          0  USEFUL:          0  USELESS:          0
cpu0_L1I AVERAGE MISS LATENCY: 23.662 cycles
cpu0_STLB TOTAL     ACCESS:    1100987  HIT:    1051562  MISS:      49425
cpu0_STLB LOAD      ACCESS:    1086353  HIT:    1038761  MISS:      47592
cpu0_STLB RFO       ACCESS:      14634  HIT:      12801  MISS:       1833
cpu0_STLB PREFETCH  ACCESS:          0  HIT:          0  MISS:          0
cpu0_STLB WRITEBACK ACCESS:          0  HIT:          0  MISS:          0
cpu0_STLB TRANSLATION ACCESS:          0  HIT:          0  MISS:          0
cpu0_STLB PREFETCH  REQUESTED:        115  ISSUED:         47  USEFUL:          0  USELESS:          0
cpu0_STLB AVERAGE MISS LATENCY: 14.4966 cycles
cpu0_L1D TOTAL     ACCESS:   11490973  HIT:    8774619  MISS:    2716354
cpu0_L1D LOAD      ACCESS:    4599934  HIT:    3248788  MISS:    1351146
cpu0_L1D RFO       ACCESS:    2300733  HIT:    2240297  MISS:      60436
cpu0_L1D PREFETCH  ACCESS:    4542232  HIT:    3244335  MISS:    1297897
cpu0_L1D WRITEBACK ACCESS:          0  HIT:          0  MISS:          0
cpu0_L1D TRANSLATION ACCESS:      48074  HIT:      41199  MISS:       6875
cpu0_L1D PREFETCH  REQUESTED:    4614446  ISSUED:    4601700  USEFUL:     144855  USELESS:    1163106
cpu0_L1D AVERAGE MISS LATENCY: 14.9918 cycles
cpu0_L2C TOTAL     ACCESS:    3321625  HIT:    2860211  MISS:     461414
cpu0_L2C LOAD      ACCESS:    1821422  HIT:    1491026  MISS:     330396
cpu0_L2C RFO       ACCESS:      60085  HIT:      40375  MISS:      19710
cpu0_L2C PREFETCH  ACCESS:    1308010  HIT:    1198569  MISS:     109441
cpu0_L2C WRITEBACK ACCESS:     125233  HIT:     124769  MISS:        464
cpu0_L2C TRANSLATION ACCESS:       6875  HIT:       5472  MISS:       1403
cpu0_L2C PREFETCH  REQUESTED:          0  ISSUED:          0  USEFUL:          0  USELESS:          0
cpu0_L2C AVERAGE MISS LATENCY: 36.4495 cycles
LLC TOTAL     ACCESS:     522357  HIT:     483316  MISS:      39041
LLC LOAD      ACCESS:     330392  HIT:     314394  MISS:      15998
LLC RFO       ACCESS:      19709  HIT:      15960  MISS:       3749
LLC PREFETCH  ACCESS:     109440  HIT:      90208  MISS:      19232
LLC WRITEBACK ACCESS:      61413  HIT:      61397  MISS:         16
LLC TRANSLATION ACCESS:       1403  HIT:       1357  MISS:         46
LLC PREFETCH  REQUESTED:          0  ISSUED:          0  USEFUL:          0  USELESS:          0
LLC AVERAGE MISS LATENCY: 182.825 cycles

DRAM Statistics
 CHANNEL 0
 RQ ROW_BUFFER_HIT:       7448  ROW_BUFFER_MISS:      31575
 DBUS AVG_CONGESTED_CYCLE:    3.76109
 WQ ROW_BUFFER_HIT:       2685  ROW_BUFFER_MISS:      10049  FULL:          0


CPU 0 Branch Prediction Accuracy: 96.4058% MPKI: 7.9138 Average ROB Occupancy at Mispredict: 163.979
Branch type MPKI
BRANCH_DIRECT_JUMP: 0.22428
BRANCH_INDIRECT: 0.34604
BRANCH_CONDITIONAL: 5.86076
BRANCH_DIRECT_CALL: 0.41356
BRANCH_INDIRECT_CALL: 0.12748
BRANCH_RETURN: 0.94168

