
*** ChampSim Multicore Out-of-Order Simulator ***

Warmup Instructions: 25000000
Simulation Instructions: 25000000
Number of CPUs: 1
Off-chip DRAM Size: 4 GiB Channels: 1 Width: 64-bit Data Rate: 3200 MT/s

VirtualMemory physical capacity: 8588881920 num_ppages: 2096895
VirtualMemory page size: 4096 log2_page_size: 12

CPU 0 runs ipc1_public/server_003.champsimtrace.xz
Basic BTB sets: 1024 ways: 8 indirect buffer size: 4096 RAS size: 64
CPU 0 next line instruction prefetcher
cpu0_L1D next line prefetcher
WARNING: The extended signature CACHE::prefetch_line(ip, base_addr, pf_addr, fill_this_level, prefetch_metadata) is deprecated.
WARNING: Use CACHE::prefetch_line(pf_addr, fill_this_level, prefetch_metadata) instead.
Heartbeat CPU 0 instructions: 10000001 cycles: 2632137 heartbeat IPC: 3.79919 cumulative IPC: 3.79919 (Simulation time: 0 hr 0 min 20 sec) 
Heartbeat CPU 0 instructions: 20000002 cycles: 5255828 heartbeat IPC: 3.81142 cumulative IPC: 3.8053 (Simulation time: 0 hr 0 min 41 sec) 

Warmup complete CPU 0 instructions: 25000001 cycles: 6571597 (Simulation time: 0 hr 0 min 51 sec) 

Heartbeat CPU 0 instructions: 30000004 cycles: 9981490 heartbeat IPC: 2.11611 cumulative IPC: 1.46632 (Simulation time: 0 hr 1 min 8 sec) 
Heartbeat CPU 0 instructions: 40000004 cycles: 18150584 heartbeat IPC: 1.22413 cumulative IPC: 1.29545 (Simulation time: 0 hr 1 min 45 sec) 
Heartbeat CPU 0 instructions: 50000002 cycles: 26153184 heartbeat IPC: 1.24959 cumulative IPC: 1.27671 (Simulation time: 0 hr 2 min 23 sec) 
Finished CPU 0 instructions: 25000001 cycles: 19581587 cumulative IPC: 1.27671 (Simulation time: 0 hr 2 min 23 sec) 

ChampSim completed all CPUs

Region of Interest Statistics

CPU 0 cumulative IPC: 1.27671 instructions: 25000001 cycles: 19581587
cpu0_DTLB TOTAL     ACCESS:    5210655  HIT:    4993561  MISS:     217094
cpu0_DTLB LOAD      ACCESS:    3681931  HIT:    3478102  MISS:     203829
cpu0_DTLB RFO       ACCESS:    1528724  HIT:    1515459  MISS:      13265
cpu0_DTLB PREFETCH  ACCESS:          0  HIT:          0  MISS:          0
cpu0_DTLB WRITEBACK ACCESS:          0  HIT:          0  MISS:          0
cpu0_DTLB TRANSLATION ACCESS:          0  HIT:          0  MISS:          0
cpu0_DTLB PREFETCH  REQUESTED:          0  ISSUED:          0  USEFUL:          0  USELESS:          0
cpu0_DTLB AVERAGE MISS LATENCY: 11.2466 cycles
cpu0_ITLB TOTAL     ACCESS:    2043323  HIT:    1972846  MISS:      70477
cpu0_ITLB LOAD      ACCESS:    2043323  HIT:    1972846  MISS:      70477
cpu0_ITLB RFO       ACCESS:          0  HIT:          0  MISS:          0
cpu0_ITLB PREFETCH  ACCESS:          0  HIT:          0  MISS:          0
cpu0_ITLB WRITEBACK ACCESS:          0  HIT:          0  MISS:          0
cpu0_ITLB TRANSLATION ACCESS:          0  HIT:          0  MISS:          0
cpu0_ITLB PREFETCH  REQUESTED:          0  ISSUED:          0  USEFUL:          0  USELESS:          0
cpu0_ITLB AVERAGE MISS LATENCY: 10.4436 cycles
cpu0_L1I TOTAL     ACCESS:    5174185  HIT:    4526034  MISS:     648151
cpu0_L1I LOAD      ACCESS:    2719140  HIT:    2323830  MISS:     395310
cpu0_L1I RFO       ACCESS:          0  HIT:          0  MISS:          0
cpu0_L1I PREFETCH  ACCESS:    2455045  HIT:    2202204  MISS:     252841
cpu0_L1I WRITEBACK ACCESS:          0  HIT:          0  MISS:          0
cpu0_L1I TRANSLATION ACCESS:          0  HIT:          0  MISS:          0
cpu0_L1I PREFETCH  REQUESTED:    2740732  ISSUED:    2740314  USEFUL:     217584  USELESS:      71627
cpu0_L1I AVERAGE MISS LATENCY: 21.2257 cycles
cpu0_STLB TOTAL     ACCESS:     287571  HIT:     261058  MISS:      26513
cpu0_STLB LOAD      ACCESS:     274306  HIT:     249191  MISS:      25115
cpu0_STLB RFO       ACCESS:      13265  HIT:      11867  MISS:       1398
cpu0_STLB PREFETCH  ACCESS:          0  HIT:          0  MISS:          0
cpu0_STLB WRITEBACK ACCESS:          0  HIT:          0  MISS:          0
cpu0_STLB TRANSLATION ACCESS:          0  HIT:          0  MISS:          0
cpu0_STLB PREFETCH  REQUESTED:          0  ISSUED:          0  USEFUL:          0  USELESS:          0
cpu0_STLB AVERAGE MISS LATENCY: 21.9971 cycles
cpu0_L1D TOTAL     ACCESS:   10010298  HIT:    9374161  MISS:     636137
cpu0_L1D LOAD      ACCESS:    3869954  HIT:    3579331  MISS:     290623
cpu0_L1D RFO       ACCESS:    2348773  HIT:    2281097  MISS:      67676
cpu0_L1D PREFETCH  ACCESS:    3765774  HIT:    3492247  MISS:     273527
cpu0_L1D WRITEBACK ACCESS:          0  HIT:          0  MISS:          0
cpu0_L1D TRANSLATION ACCESS:      25797  HIT:      21486  MISS:       4311
cpu0_L1D PREFETCH  REQUESTED:    3901425  ISSUED:    3880032  USEFUL:     203540  USELESS:      86114
cpu0_L1D AVERAGE MISS LATENCY: 42.6032 cycles
cpu0_L2C TOTAL     ACCESS:    1426327  HIT:     987640  MISS:     438687
cpu0_L2C LOAD      ACCESS:     636355  HIT:     444219  MISS:     192136
cpu0_L2C RFO       ACCESS:      64772  HIT:      19162  MISS:      45610
cpu0_L2C PREFETCH  ACCESS:     578807  HIT:     380105  MISS:     198702
cpu0_L2C WRITEBACK ACCESS:     142082  HIT:     141159  MISS:        923
cpu0_L2C TRANSLATION ACCESS:       4311  HIT:       2995  MISS:       1316
cpu0_L2C PREFETCH  REQUESTED:          0  ISSUED:          0  USEFUL:          0  USELESS:          0
cpu0_L2C AVERAGE MISS LATENCY: 67.8755 cycles
LLC TOTAL     ACCESS:     521659  HIT:     445159  MISS:      76500
LLC LOAD      ACCESS:     192128  HIT:     177356  MISS:      14772
LLC RFO       ACCESS:      45609  HIT:      18158  MISS:      27451
LLC PREFETCH  ACCESS:     198701  HIT:     164654  MISS:      34047
LLC WRITEBACK ACCESS:      83905  HIT:      83744  MISS:        161
LLC TRANSLATION ACCESS:       1316  HIT:       1247  MISS:         69
LLC PREFETCH  REQUESTED:          0  ISSUED:          0  USEFUL:          0  USELESS:          0
LLC AVERAGE MISS LATENCY: 269.048 cycles

DRAM Statistics
 CHANNEL 0
 RQ ROW_BUFFER_HIT:      17877  ROW_BUFFER_MISS:      58450
 DBUS AVG_CONGESTED_CYCLE:    3.88941
 WQ ROW_BUFFER_HIT:       4561  ROW_BUFFER_MISS:      30232  FULL:          0


CPU 0 Branch Prediction Accuracy: 93.3398% MPKI: 13.8515 Average ROB Occupancy at Mispredict: 129.685
Branch type MPKI
BRANCH_DIRECT_JUMP: 0.19824
BRANCH_INDIRECT: 0.51728
BRANCH_CONDITIONAL: 9.45216
BRANCH_DIRECT_CALL: 0.37436
BRANCH_INDIRECT_CALL: 2.6942
BRANCH_RETURN: 0.61524

