WARNING: physical memory size is smaller than virtual memory size.
WARNING: option --warmup_instructions is deprecated. Use --warmup-instructions instead.
WARNING: option --simulation_instructions is deprecated. Use --simulation-instructions instead.

*** ChampSim Multicore Out-of-Order Simulator ***
Warmup Instructions: 25000000
Simulation Instructions: 25000000
Number of CPUs: 1
Page size: 4096

Off-chip DRAM Size: 4 GiB Channels: 1 Width: 64-bit Data Race: 3200 MT/s
Heartbeat CPU 0 instructions: 10000001 cycles: 2513313 heartbeat IPC: 3.979 cumulative IPC: 3.979 (Simulation time: 00 hr 00 min 45 sec)
Heartbeat CPU 0 instructions: 20000003 cycles: 5025602 heartbeat IPC: 3.98 cumulative IPC: 3.98 (Simulation time: 00 hr 01 min 30 sec)
Warmup finished CPU 0 instructions: 25000002 cycles: 6284227 cumulative IPC: 3.978 (Simulation time: 00 hr 01 min 53 sec)
Warmup complete CPU 0 instructions: 25000002 cycles: 6284227 cumulative IPC: 3.978 (Simulation time: 00 hr 01 min 53 sec)
Heartbeat CPU 0 instructions: 30000002 cycles: 9228592 heartbeat IPC: 2.379 cumulative IPC: 1.698 (Simulation time: 00 hr 02 min 33 sec)
Heartbeat CPU 0 instructions: 40000004 cycles: 16072682 heartbeat IPC: 1.461 cumulative IPC: 1.532 (Simulation time: 00 hr 04 min 08 sec)
Heartbeat CPU 0 instructions: 50000002 cycles: 22403715 heartbeat IPC: 1.58 cumulative IPC: 1.551 (Simulation time: 00 hr 05 min 39 sec)
Simulation finished CPU 0 instructions: 25000000 cycles: 16119489 cumulative IPC: 1.551 (Simulation time: 00 hr 05 min 39 sec)
Simulation complete CPU 0 instructions: 25000000 cycles: 16119489 cumulative IPC: 1.551 (Simulation time: 00 hr 05 min 39 sec)

ChampSim completed all CPUs

=== Simulation ===
CPU 0 runs ipc1_public/server_001.champsimtrace.xz
Region of Interest Statistics

CPU 0 cumulative IPC: 1.551 instructions: 25000000 cycles: 16119489
CPU 0 Branch Prediction Accuracy: 98.28% MPKI: 2.938 Average ROB Occupancy at Mispredict: 123.6
Branch type MPKI
BRANCH_DIRECT_JUMP: 0.074
BRANCH_INDIRECT: 0.135
BRANCH_CONDITIONAL: 1.12
BRANCH_DIRECT_CALL: 0.109
BRANCH_INDIRECT_CALL: 0.0267
BRANCH_RETURN: 1.47

LLC TOTAL        ACCESS:     355791 HIT:     205388 MISS:     150403
LLC LOAD         ACCESS:     134134 HIT:      80047 MISS:      54087
LLC RFO          ACCESS:      40601 HIT:       3511 MISS:      37090
LLC PREFETCH     ACCESS:      75052 HIT:      26807 MISS:      48245
LLC WRITE        ACCESS:      91506 HIT:      91455 MISS:         51
LLC TRANSLATION  ACCESS:      14498 HIT:       3568 MISS:      10930
LLC PREFETCH REQUESTED:          0 ISSUED:          0 USEFUL:          0 USELESS:          0
LLC AVERAGE MISS LATENCY: 339 cycles
cpu0_DTLB TOTAL        ACCESS:    4998126 HIT:    4774735 MISS:     223391
cpu0_DTLB LOAD         ACCESS:    4998126 HIT:    4774735 MISS:     223391
cpu0_DTLB RFO          ACCESS:          0 HIT:          0 MISS:          0
cpu0_DTLB PREFETCH     ACCESS:          0 HIT:          0 MISS:          0
cpu0_DTLB WRITE        ACCESS:          0 HIT:          0 MISS:          0
cpu0_DTLB TRANSLATION  ACCESS:          0 HIT:          0 MISS:          0
cpu0_DTLB PREFETCH REQUESTED:          0 ISSUED:          0 USEFUL:          0 USELESS:          0
cpu0_DTLB AVERAGE MISS LATENCY: 19.93 cycles
cpu0_ITLB TOTAL        ACCESS:    1555856 HIT:    1401887 MISS:     153969
cpu0_ITLB LOAD         ACCESS:    1555856 HIT:    1401887 MISS:     153969
cpu0_ITLB RFO          ACCESS:          0 HIT:          0 MISS:          0
cpu0_ITLB PREFETCH     ACCESS:          0 HIT:          0 MISS:          0
cpu0_ITLB WRITE        ACCESS:          0 HIT:          0 MISS:          0
cpu0_ITLB TRANSLATION  ACCESS:          0 HIT:          0 MISS:          0
cpu0_ITLB PREFETCH REQUESTED:          0 ISSUED:          0 USEFUL:          0 USELESS:          0
cpu0_ITLB AVERAGE MISS LATENCY: 6.594 cycles
cpu0_L1D TOTAL        ACCESS:    9018767 HIT:    8255276 MISS:     763491
cpu0_L1D LOAD         ACCESS:    3537819 HIT:    3271987 MISS:     265832
cpu0_L1D RFO          ACCESS:          0 HIT:          0 MISS:          0
cpu0_L1D PREFETCH     ACCESS:    2649574 HIT:    2404725 MISS:     244849
cpu0_L1D WRITE        ACCESS:    2811729 HIT:    2576295 MISS:     235434
cpu0_L1D TRANSLATION  ACCESS:      19645 HIT:       2269 MISS:      17376
cpu0_L1D PREFETCH REQUESTED:    3671814 ISSUED:    2649571 USEFUL:      61421 USELESS:      45643
cpu0_L1D AVERAGE MISS LATENCY: 63.69 cycles
cpu0_L1I TOTAL        ACCESS:    1826060 HIT:    1391230 MISS:     434830
cpu0_L1I LOAD         ACCESS:    1826060 HIT:    1391230 MISS:     434830
cpu0_L1I RFO          ACCESS:          0 HIT:          0 MISS:          0
cpu0_L1I PREFETCH     ACCESS:          0 HIT:          0 MISS:          0
cpu0_L1I WRITE        ACCESS:          0 HIT:          0 MISS:          0
cpu0_L1I TRANSLATION  ACCESS:          0 HIT:          0 MISS:          0
cpu0_L1I PREFETCH REQUESTED:          0 ISSUED:          0 USEFUL:          0 USELESS:          0
cpu0_L1I AVERAGE MISS LATENCY: 21.95 cycles
cpu0_L2C TOTAL        ACCESS:     670572 HIT:     406114 MISS:     264458
cpu0_L2C LOAD         ACCESS:     384504 HIT:     250370 MISS:     134134
cpu0_L2C RFO          ACCESS:      48989 HIT:       8388 MISS:      40601
cpu0_L2C PREFETCH     ACCESS:     107143 HIT:      32091 MISS:      75052
cpu0_L2C WRITE        ACCESS:     112698 HIT:     112525 MISS:        173
cpu0_L2C TRANSLATION  ACCESS:      17238 HIT:       2740 MISS:      14498
cpu0_L2C PREFETCH REQUESTED:          0 ISSUED:          0 USEFUL:          0 USELESS:          0
cpu0_L2C AVERAGE MISS LATENCY: 213.4 cycles
cpu0_STLB TOTAL        ACCESS:     202271 HIT:     186825 MISS:      15446
cpu0_STLB LOAD         ACCESS:     202271 HIT:     186825 MISS:      15446
cpu0_STLB RFO          ACCESS:          0 HIT:          0 MISS:          0
cpu0_STLB PREFETCH     ACCESS:          0 HIT:          0 MISS:          0
cpu0_STLB WRITE        ACCESS:          0 HIT:          0 MISS:          0
cpu0_STLB TRANSLATION  ACCESS:          0 HIT:          0 MISS:          0
cpu0_STLB PREFETCH REQUESTED:          0 ISSUED:          0 USEFUL:          0 USELESS:          0
cpu0_STLB AVERAGE MISS LATENCY: 312.1 cycles

DRAM Statistics

Channel 0 RQ ROW_BUFFER_HIT:      35687
  ROW_BUFFER_MISS:     114620
 AVG DBUS CONGESTED CYCLE: 3.943
WQ ROW_BUFFER_HIT: Channel 0 
  ROW_BUFFER_MISS:       7017
  FULL:      67114
