
*** ChampSim Multicore Out-of-Order Simulator ***

Warmup Instructions: 25000000
Simulation Instructions: 25000000
Number of CPUs: 1
Off-chip DRAM Size: 4 GiB Channels: 1 Width: 64-bit Data Rate: 3200 MT/s

VirtualMemory physical capacity: 8588881920 num_ppages: 2096895
VirtualMemory page size: 4096 log2_page_size: 12

CPU 0 runs ipc1_public/server_002.champsimtrace.xz
Basic BTB sets: 1024 ways: 8 indirect buffer size: 4096 RAS size: 64
CPU 0 Entangling prefetcher
cpu0_STLB next line prefetcher
cpu0_L1D next line prefetcher
WARNING: The extended signature CACHE::prefetch_line(ip, base_addr, pf_addr, fill_this_level, prefetch_metadata) is deprecated.
WARNING: Use CACHE::prefetch_line(pf_addr, fill_this_level, prefetch_metadata) instead.
Heartbeat CPU 0 instructions: 10000003 cycles: 2504023 heartbeat IPC: 3.99357 cumulative IPC: 3.99357 (Simulation time: 0 hr 0 min 32 sec) 
Heartbeat CPU 0 instructions: 20000000 cycles: 5032938 heartbeat IPC: 3.95426 cumulative IPC: 3.97382 (Simulation time: 0 hr 1 min 4 sec) 

Warmup complete CPU 0 instructions: 25000004 cycles: 6282939 (Simulation time: 0 hr 1 min 20 sec) 

Heartbeat CPU 0 instructions: 30000001 cycles: 10202707 heartbeat IPC: 1.93432 cumulative IPC: 1.27558 (Simulation time: 0 hr 1 min 52 sec) 
Heartbeat CPU 0 instructions: 40000004 cycles: 17513203 heartbeat IPC: 1.3679 cumulative IPC: 1.33568 (Simulation time: 0 hr 2 min 54 sec) 
Heartbeat CPU 0 instructions: 50000000 cycles: 24823046 heartbeat IPC: 1.36802 cumulative IPC: 1.34843 (Simulation time: 0 hr 3 min 55 sec) 
Finished CPU 0 instructions: 25000000 cycles: 18540111 cumulative IPC: 1.34843 (Simulation time: 0 hr 3 min 55 sec) 

ChampSim completed all CPUs

Region of Interest Statistics

CPU 0 cumulative IPC: 1.34843 instructions: 25000000 cycles: 18540111
cpu0_DTLB TOTAL     ACCESS:    5245680  HIT:    5119692  MISS:     125988
cpu0_DTLB LOAD      ACCESS:    2663030  HIT:    2548871  MISS:     114159
cpu0_DTLB RFO       ACCESS:    2582650  HIT:    2570821  MISS:      11829
cpu0_DTLB PREFETCH  ACCESS:          0  HIT:          0  MISS:          0
cpu0_DTLB WRITEBACK ACCESS:          0  HIT:          0  MISS:          0
cpu0_DTLB TRANSLATION ACCESS:          0  HIT:          0  MISS:          0
cpu0_DTLB PREFETCH  REQUESTED:          0  ISSUED:          0  USEFUL:          0  USELESS:          0
cpu0_DTLB AVERAGE MISS LATENCY: 9.28889 cycles
cpu0_ITLB TOTAL     ACCESS:    1656668  HIT:    1555666  MISS:     101002
cpu0_ITLB LOAD      ACCESS:    1656668  HIT:    1555666  MISS:     101002
cpu0_ITLB RFO       ACCESS:          0  HIT:          0  MISS:          0
cpu0_ITLB PREFETCH  ACCESS:          0  HIT:          0  MISS:          0
cpu0_ITLB WRITEBACK ACCESS:          0  HIT:          0  MISS:          0
cpu0_ITLB TRANSLATION ACCESS:          0  HIT:          0  MISS:          0
cpu0_ITLB PREFETCH  REQUESTED:          0  ISSUED:          0  USEFUL:          0  USELESS:          0
cpu0_ITLB AVERAGE MISS LATENCY: 9.01409 cycles
cpu0_L1I TOTAL     ACCESS:   12524550  HIT:   11704758  MISS:     819792
cpu0_L1I LOAD      ACCESS:    3132335  HIT:    3047452  MISS:      84883
cpu0_L1I RFO       ACCESS:          0  HIT:          0  MISS:          0
cpu0_L1I PREFETCH  ACCESS:    9392215  HIT:    8657306  MISS:     734909
cpu0_L1I WRITEBACK ACCESS:          0  HIT:          0  MISS:          0
cpu0_L1I TRANSLATION ACCESS:          0  HIT:          0  MISS:          0
cpu0_L1I PREFETCH  REQUESTED:   13966266  ISSUED:    9429943  USEFUL:     678636  USELESS:      79873
cpu0_L1I AVERAGE MISS LATENCY: 10.9422 cycles
cpu0_STLB TOTAL     ACCESS:     226990  HIT:     226744  MISS:        246
cpu0_STLB LOAD      ACCESS:     215161  HIT:     214917  MISS:        244
cpu0_STLB RFO       ACCESS:      11829  HIT:      11827  MISS:          2
cpu0_STLB PREFETCH  ACCESS:          0  HIT:          0  MISS:          0
cpu0_STLB WRITEBACK ACCESS:          0  HIT:          0  MISS:          0
cpu0_STLB TRANSLATION ACCESS:          0  HIT:          0  MISS:          0
cpu0_STLB PREFETCH  REQUESTED:     215161  ISSUED:          0  USEFUL:          0  USELESS:          0
cpu0_STLB AVERAGE MISS LATENCY: 131.939 cycles
cpu0_L1D TOTAL     ACCESS:   10651285  HIT:   10615982  MISS:      35303
cpu0_L1D LOAD      ACCESS:    3224903  HIT:    3211681  MISS:      13222
cpu0_L1D RFO       ACCESS:    4219717  HIT:    4215085  MISS:       4632
cpu0_L1D PREFETCH  ACCESS:    3206438  HIT:    3189008  MISS:      17430
cpu0_L1D WRITEBACK ACCESS:          0  HIT:          0  MISS:          0
cpu0_L1D TRANSLATION ACCESS:        227  HIT:        208  MISS:         19
cpu0_L1D PREFETCH  REQUESTED:    3225495  ISSUED:    3209280  USEFUL:      14236  USELESS:       3390
cpu0_L1D AVERAGE MISS LATENCY: 53.1787 cycles
cpu0_L2C TOTAL     ACCESS:     862843  HIT:     858507  MISS:       4336
cpu0_L2C LOAD      ACCESS:      74332  HIT:      72514  MISS:       1818
cpu0_L2C RFO       ACCESS:       4629  HIT:       4463  MISS:        166
cpu0_L2C PREFETCH  ACCESS:     776115  HIT:     773772  MISS:       2343
cpu0_L2C WRITEBACK ACCESS:       7748  HIT:       7745  MISS:          3
cpu0_L2C TRANSLATION ACCESS:         19  HIT:         13  MISS:          6
cpu0_L2C PREFETCH  REQUESTED:          0  ISSUED:          0  USEFUL:          0  USELESS:          0
cpu0_L2C AVERAGE MISS LATENCY: 424.431 cycles
LLC TOTAL     ACCESS:       6160  HIT:       2417  MISS:       3743
LLC LOAD      ACCESS:       1818  HIT:        230  MISS:       1588
LLC RFO       ACCESS:        166  HIT:         24  MISS:        142
LLC PREFETCH  ACCESS:       2343  HIT:        336  MISS:       2007
LLC WRITEBACK ACCESS:       1827  HIT:       1823  MISS:          4
LLC TRANSLATION ACCESS:          6  HIT:          4  MISS:          2
LLC PREFETCH  REQUESTED:          0  ISSUED:          0  USEFUL:          0  USELESS:          0
LLC AVERAGE MISS LATENCY: 467.361 cycles
CPU 0 L1I Entangling prefetcher final stats
IP accesses: 3f41 fd040 43845 / 3133774
IP misses: 3d83 f60c0 4382 / 86323
IP hits: 0 0 0 / 0
IP late: 3d83 f60c0 4382 / 62086
IP wrong: 413f 104fc0 6952 / 188196
miss rate: 0.027546
coverage: 0
coverage_late: 0.719229
accuracy: 0
accuracy_late: 0.248064
discarded: 0
evicts entangled j table: 0
evicts entangled k table: 5888
max bb size: 15
formats: 21 0 7447 2214 27 2818 0 
hist_lookups: 3508 8823 7246 9442 7612 9365 5239 49 2846 2836 324 17 8 0 3 0 0 47 
hist_lookups_evict: 0 %
hist_lookups_shortlat: 0.0819315 %
bb_found_hist: 0 805206 411429 223605 95216 26094 21551 93 8775 57 4384 0 4396 4076 0 8778 0 0 0 0 0 0 0 0 0 0 0 0 0 0 0 0 0 0 0 0 0 0 0 0 0 0 0 0 0 0 0 0 0 0 0 0 0 0 0 0 0 0 0 0 0 0 0 0 
bb_found_summary: 3292133 1613660 2.04017
entangled_found_hist: 0 412091 324018 953060 44799 13709 7817 0 
entangled_found_summary: 4213950 1755494 2.40044
bb_ent_found_hist: 0 1241560 979680 393028 164337 35895 58498 49 36361 115 44905 0 30571 26642 0 17543 0 0 0 0 0 0 0 0 0 0 0 0 0 0 0 0 0 0 0 0 0 0 0 0 0 0 0 0 0 0 0 0 0 0 0 0 0 0 0 0 0 0 0 0 0 0 0 0 
bb_ent_found_summary: 7285474 3029184 2.40509

DRAM Statistics
 CHANNEL 0
 RQ ROW_BUFFER_HIT:        239  ROW_BUFFER_MISS:       3500
 DBUS AVG_CONGESTED_CYCLE:    3.93699
 WQ ROW_BUFFER_HIT:         32  ROW_BUFFER_MISS:       2172  FULL:          0


CPU 0 Branch Prediction Accuracy: 97.4984% MPKI: 4.21604 Average ROB Occupancy at Mispredict: 249.26
Branch type MPKI
BRANCH_DIRECT_JUMP: 0.001
BRANCH_INDIRECT: 0
BRANCH_CONDITIONAL: 4.0288
BRANCH_DIRECT_CALL: 0.00296
BRANCH_INDIRECT_CALL: 0.00768
BRANCH_RETURN: 0.1756

