
*** ChampSim Multicore Out-of-Order Simulator ***

Warmup Instructions: 25000000
Simulation Instructions: 25000000
Number of CPUs: 1
Off-chip DRAM Size: 4 GiB Channels: 1 Width: 64-bit Data Rate: 3200 MT/s

VirtualMemory physical capacity: 8588881920 num_ppages: 2096895
VirtualMemory page size: 4096 log2_page_size: 12

CPU 0 runs ipc1_public/server_001.champsimtrace.xz
Basic BTB sets: 1024 ways: 8 indirect buffer size: 4096 RAS size: 64
cpu0_STLB arbitrary stride prefetcher
cpu0_L1D next line prefetcher
WARNING: The extended signature CACHE::prefetch_line(ip, base_addr, pf_addr, fill_this_level, prefetch_metadata) is deprecated.
WARNING: Use CACHE::prefetch_line(pf_addr, fill_this_level, prefetch_metadata) instead.
Heartbeat CPU 0 instructions: 10000003 cycles: 2541507 heartbeat IPC: 3.93467 cumulative IPC: 3.93467 (Simulation time: 0 hr 0 min 39 sec) 
Heartbeat CPU 0 instructions: 20000000 cycles: 5099461 heartbeat IPC: 3.90937 cumulative IPC: 3.92198 (Simulation time: 0 hr 1 min 21 sec) 

Warmup complete CPU 0 instructions: 25000004 cycles: 6377332 (Simulation time: 0 hr 1 min 40 sec) 

Heartbeat CPU 0 instructions: 30000003 cycles: 9862250 heartbeat IPC: 2.09961 cumulative IPC: 1.43475 (Simulation time: 0 hr 2 min 14 sec) 
Heartbeat CPU 0 instructions: 40000001 cycles: 18049968 heartbeat IPC: 1.22134 cumulative IPC: 1.28506 (Simulation time: 0 hr 3 min 33 sec) 
Heartbeat CPU 0 instructions: 50000003 cycles: 25748153 heartbeat IPC: 1.29901 cumulative IPC: 1.2906 (Simulation time: 0 hr 4 min 56 sec) 
Finished CPU 0 instructions: 25000004 cycles: 19370822 cumulative IPC: 1.2906 (Simulation time: 0 hr 4 min 56 sec) 

ChampSim completed all CPUs

Region of Interest Statistics

CPU 0 cumulative IPC: 1.2906 instructions: 25000004 cycles: 19370822
cpu0_DTLB TOTAL     ACCESS:    4829474  HIT:    4674614  MISS:     154860
cpu0_DTLB LOAD      ACCESS:    3045849  HIT:    2901551  MISS:     144298
cpu0_DTLB RFO       ACCESS:    1783625  HIT:    1773063  MISS:      10562
cpu0_DTLB PREFETCH  ACCESS:          0  HIT:          0  MISS:          0
cpu0_DTLB WRITEBACK ACCESS:          0  HIT:          0  MISS:          0
cpu0_DTLB TRANSLATION ACCESS:          0  HIT:          0  MISS:          0
cpu0_DTLB PREFETCH  REQUESTED:          0  ISSUED:          0  USEFUL:          0  USELESS:          0
cpu0_DTLB AVERAGE MISS LATENCY: 14.3053 cycles
cpu0_ITLB TOTAL     ACCESS:    1204608  HIT:    1152775  MISS:      51833
cpu0_ITLB LOAD      ACCESS:    1204608  HIT:    1152775  MISS:      51833
cpu0_ITLB RFO       ACCESS:          0  HIT:          0  MISS:          0
cpu0_ITLB PREFETCH  ACCESS:          0  HIT:          0  MISS:          0
cpu0_ITLB WRITEBACK ACCESS:          0  HIT:          0  MISS:          0
cpu0_ITLB TRANSLATION ACCESS:          0  HIT:          0  MISS:          0
cpu0_ITLB PREFETCH  REQUESTED:          0  ISSUED:          0  USEFUL:          0  USELESS:          0
cpu0_ITLB AVERAGE MISS LATENCY: 10.0204 cycles
cpu0_L1I TOTAL     ACCESS:    2578138  HIT:    2317237  MISS:     260901
cpu0_L1I LOAD      ACCESS:    2578138  HIT:    2317237  MISS:     260901
cpu0_L1I RFO       ACCESS:          0  HIT:          0  MISS:          0
cpu0_L1I PREFETCH  ACCESS:          0  HIT:          0  MISS:          0
cpu0_L1I WRITEBACK ACCESS:          0  HIT:          0  MISS:          0
cpu0_L1I TRANSLATION ACCESS:          0  HIT:          0  MISS:          0
cpu0_L1I PREFETCH  REQUESTED:          0  ISSUED:          0  USEFUL:          0  USELESS:          0
cpu0_L1I AVERAGE MISS LATENCY: 34.6751 cycles
cpu0_STLB TOTAL     ACCESS:     206693  HIT:     191242  MISS:      15451
cpu0_STLB LOAD      ACCESS:     196131  HIT:     181657  MISS:      14474
cpu0_STLB RFO       ACCESS:      10562  HIT:       9585  MISS:        977
cpu0_STLB PREFETCH  ACCESS:          0  HIT:          0  MISS:          0
cpu0_STLB WRITEBACK ACCESS:          0  HIT:          0  MISS:          0
cpu0_STLB TRANSLATION ACCESS:          0  HIT:          0  MISS:          0
cpu0_STLB PREFETCH  REQUESTED:        535  ISSUED:         66  USEFUL:          0  USELESS:          0
cpu0_STLB AVERAGE MISS LATENCY: 56.3004 cycles
cpu0_L1D TOTAL     ACCESS:    8669066  HIT:    8391248  MISS:     277818
cpu0_L1D LOAD      ACCESS:    3065591  HIT:    2950605  MISS:     114986
cpu0_L1D RFO       ACCESS:    2608322  HIT:    2562035  MISS:      46287
cpu0_L1D PREFETCH  ACCESS:    2980090  HIT:    2866305  MISS:     113785
cpu0_L1D WRITEBACK ACCESS:          0  HIT:          0  MISS:          0
cpu0_L1D TRANSLATION ACCESS:      15063  HIT:      12303  MISS:       2760
cpu0_L1D PREFETCH  REQUESTED:    3088938  ISSUED:    3078148  USEFUL:     113866  USELESS:      24110
cpu0_L1D AVERAGE MISS LATENCY: 149.372 cycles
cpu0_L2C TOTAL     ACCESS:     647567  HIT:     395083  MISS:     252484
cpu0_L2C LOAD      ACCESS:     352650  HIT:     229474  MISS:     123176
cpu0_L2C RFO       ACCESS:      45217  HIT:       5002  MISS:      40215
cpu0_L2C PREFETCH  ACCESS:     138085  HIT:      50163  MISS:      87922
cpu0_L2C WRITEBACK ACCESS:     108855  HIT:     108599  MISS:        256
cpu0_L2C TRANSLATION ACCESS:       2760  HIT:       1845  MISS:        915
cpu0_L2C PREFETCH  REQUESTED:          0  ISSUED:          0  USEFUL:          0  USELESS:          0
cpu0_L2C AVERAGE MISS LATENCY: 188.177 cycles
LLC TOTAL     ACCESS:     343557  HIT:     207781  MISS:     135776
LLC LOAD      ACCESS:     123173  HIT:      78395  MISS:      44778
LLC RFO       ACCESS:      40215  HIT:       4156  MISS:      36059
LLC PREFETCH  ACCESS:      87919  HIT:      33122  MISS:      54797
LLC WRITEBACK ACCESS:      91335  HIT:      91301  MISS:         34
LLC TRANSLATION ACCESS:        915  HIT:        807  MISS:        108
LLC PREFETCH  REQUESTED:          0  ISSUED:          0  USEFUL:          0  USELESS:          0
LLC AVERAGE MISS LATENCY: 310.913 cycles

DRAM Statistics
 CHANNEL 0
 RQ ROW_BUFFER_HIT:      24853  ROW_BUFFER_MISS:     110838
 DBUS AVG_CONGESTED_CYCLE:    3.90665
 WQ ROW_BUFFER_HIT:      11754  ROW_BUFFER_MISS:      62337  FULL:          0


CPU 0 Branch Prediction Accuracy: 96.6016% MPKI: 5.79844 Average ROB Occupancy at Mispredict: 176.763
Branch type MPKI
BRANCH_DIRECT_JUMP: 0.0432
BRANCH_INDIRECT: 0.12976
BRANCH_CONDITIONAL: 4.13248
BRANCH_DIRECT_CALL: 0.06328
BRANCH_INDIRECT_CALL: 0.0208
BRANCH_RETURN: 1.40892

