
*** ChampSim Multicore Out-of-Order Simulator ***

Warmup Instructions: 25000000
Simulation Instructions: 25000000
Number of CPUs: 1
Off-chip DRAM Size: 4 GiB Channels: 1 Width: 64-bit Data Rate: 3200 MT/s

VirtualMemory physical capacity: 8588881920 num_ppages: 2096895
VirtualMemory page size: 4096 log2_page_size: 12

CPU 0 runs ipc1_public/server_001.champsimtrace.xz
Basic BTB sets: 1024 ways: 8 indirect buffer size: 4096 RAS size: 64
cpu0_L1D next line prefetcher
WARNING: The extended signature CACHE::prefetch_line(ip, base_addr, pf_addr, fill_this_level, prefetch_metadata) is deprecated.
WARNING: Use CACHE::prefetch_line(pf_addr, fill_this_level, prefetch_metadata) instead.
Heartbeat CPU 0 instructions: 10000003 cycles: 2541507 heartbeat IPC: 3.93467 cumulative IPC: 3.93467 (Simulation time: 0 hr 0 min 39 sec) 
Heartbeat CPU 0 instructions: 20000002 cycles: 5099472 heartbeat IPC: 3.90936 cumulative IPC: 3.92198 (Simulation time: 0 hr 1 min 18 sec) 

Warmup complete CPU 0 instructions: 25000001 cycles: 6377484 (Simulation time: 0 hr 1 min 37 sec) 

Heartbeat CPU 0 instructions: 30000003 cycles: 9856215 heartbeat IPC: 2.10228 cumulative IPC: 1.43731 (Simulation time: 0 hr 2 min 9 sec) 
Heartbeat CPU 0 instructions: 40000001 cycles: 18043252 heartbeat IPC: 1.22144 cumulative IPC: 1.28581 (Simulation time: 0 hr 3 min 21 sec) 
Heartbeat CPU 0 instructions: 50000003 cycles: 25746244 heartbeat IPC: 1.2982 cumulative IPC: 1.29074 (Simulation time: 0 hr 4 min 29 sec) 
Finished CPU 0 instructions: 25000002 cycles: 19368760 cumulative IPC: 1.29074 (Simulation time: 0 hr 4 min 29 sec) 

ChampSim completed all CPUs

Region of Interest Statistics

CPU 0 cumulative IPC: 1.29074 instructions: 25000002 cycles: 19368760
cpu0_DTLB TOTAL     ACCESS:    4829299  HIT:    4674452  MISS:     154847
cpu0_DTLB LOAD      ACCESS:    3045577  HIT:    2901298  MISS:     144279
cpu0_DTLB RFO       ACCESS:    1783722  HIT:    1773154  MISS:      10568
cpu0_DTLB PREFETCH  ACCESS:          0  HIT:          0  MISS:          0
cpu0_DTLB WRITEBACK ACCESS:          0  HIT:          0  MISS:          0
cpu0_DTLB TRANSLATION ACCESS:          0  HIT:          0  MISS:          0
cpu0_DTLB PREFETCH  REQUESTED:          0  ISSUED:          0  USEFUL:          0  USELESS:          0
cpu0_DTLB AVERAGE MISS LATENCY: 14.3921 cycles
cpu0_ITLB TOTAL     ACCESS:    1204529  HIT:    1152694  MISS:      51835
cpu0_ITLB LOAD      ACCESS:    1204529  HIT:    1152694  MISS:      51835
cpu0_ITLB RFO       ACCESS:          0  HIT:          0  MISS:          0
cpu0_ITLB PREFETCH  ACCESS:          0  HIT:          0  MISS:          0
cpu0_ITLB WRITEBACK ACCESS:          0  HIT:          0  MISS:          0
cpu0_ITLB TRANSLATION ACCESS:          0  HIT:          0  MISS:          0
cpu0_ITLB PREFETCH  REQUESTED:          0  ISSUED:          0  USEFUL:          0  USELESS:          0
cpu0_ITLB AVERAGE MISS LATENCY: 10.0804 cycles
cpu0_L1I TOTAL     ACCESS:    2578162  HIT:    2317245  MISS:     260917
cpu0_L1I LOAD      ACCESS:    2578162  HIT:    2317245  MISS:     260917
cpu0_L1I RFO       ACCESS:          0  HIT:          0  MISS:          0
cpu0_L1I PREFETCH  ACCESS:          0  HIT:          0  MISS:          0
cpu0_L1I WRITEBACK ACCESS:          0  HIT:          0  MISS:          0
cpu0_L1I TRANSLATION ACCESS:          0  HIT:          0  MISS:          0
cpu0_L1I PREFETCH  REQUESTED:          0  ISSUED:          0  USEFUL:          0  USELESS:          0
cpu0_L1I AVERAGE MISS LATENCY: 34.6216 cycles
cpu0_STLB TOTAL     ACCESS:     206682  HIT:     191228  MISS:      15454
cpu0_STLB LOAD      ACCESS:     196114  HIT:     181639  MISS:      14475
cpu0_STLB RFO       ACCESS:      10568  HIT:       9589  MISS:        979
cpu0_STLB PREFETCH  ACCESS:          0  HIT:          0  MISS:          0
cpu0_STLB WRITEBACK ACCESS:          0  HIT:          0  MISS:          0
cpu0_STLB TRANSLATION ACCESS:          0  HIT:          0  MISS:          0
cpu0_STLB PREFETCH  REQUESTED:          0  ISSUED:          0  USEFUL:          0  USELESS:          0
cpu0_STLB AVERAGE MISS LATENCY: 57.3566 cycles
cpu0_L1D TOTAL     ACCESS:    8669071  HIT:    8391238  MISS:     277833
cpu0_L1D LOAD      ACCESS:    3065680  HIT:    2950483  MISS:     115197
cpu0_L1D RFO       ACCESS:    2608072  HIT:    2561779  MISS:      46293
cpu0_L1D PREFETCH  ACCESS:    2980256  HIT:    2866672  MISS:     113584
cpu0_L1D WRITEBACK ACCESS:          0  HIT:          0  MISS:          0
cpu0_L1D TRANSLATION ACCESS:      15063  HIT:      12304  MISS:       2759
cpu0_L1D PREFETCH  REQUESTED:    3088919  ISSUED:    3077813  USEFUL:     113670  USELESS:      24116
cpu0_L1D AVERAGE MISS LATENCY: 149.948 cycles
cpu0_L2C TOTAL     ACCESS:     647589  HIT:     394198  MISS:     253391
cpu0_L2C LOAD      ACCESS:     352881  HIT:     229102  MISS:     123779
cpu0_L2C RFO       ACCESS:      45212  HIT:       4983  MISS:      40229
cpu0_L2C PREFETCH  ACCESS:     137891  HIT:      49675  MISS:      88216
cpu0_L2C WRITEBACK ACCESS:     108846  HIT:     108594  MISS:        252
cpu0_L2C TRANSLATION ACCESS:       2759  HIT:       1844  MISS:        915
cpu0_L2C PREFETCH  REQUESTED:          0  ISSUED:          0  USEFUL:          0  USELESS:          0
cpu0_L2C AVERAGE MISS LATENCY: 188.11 cycles
LLC TOTAL     ACCESS:     344629  HIT:     209037  MISS:     135592
LLC LOAD      ACCESS:     123777  HIT:      79106  MISS:      44671
LLC RFO       ACCESS:      40228  HIT:       4173  MISS:      36055
LLC PREFETCH  ACCESS:      88213  HIT:      33518  MISS:      54695
LLC WRITEBACK ACCESS:      91496  HIT:      91453  MISS:         43
LLC TRANSLATION ACCESS:        915  HIT:        787  MISS:        128
LLC PREFETCH  REQUESTED:          0  ISSUED:          0  USEFUL:          0  USELESS:          0
LLC AVERAGE MISS LATENCY: 312.327 cycles

DRAM Statistics
 CHANNEL 0
 RQ ROW_BUFFER_HIT:      24938  ROW_BUFFER_MISS:     110552
 DBUS AVG_CONGESTED_CYCLE:    3.90572
 WQ ROW_BUFFER_HIT:      11237  ROW_BUFFER_MISS:      62753  FULL:          0


CPU 0 Branch Prediction Accuracy: 96.6016% MPKI: 5.79848 Average ROB Occupancy at Mispredict: 176.93
Branch type MPKI
BRANCH_DIRECT_JUMP: 0.0432
BRANCH_INDIRECT: 0.12976
BRANCH_CONDITIONAL: 4.13252
BRANCH_DIRECT_CALL: 0.06328
BRANCH_INDIRECT_CALL: 0.0208
BRANCH_RETURN: 1.40892

