
*** ChampSim Multicore Out-of-Order Simulator ***

Warmup Instructions: 25000000
Simulation Instructions: 25000000
Number of CPUs: 1
Off-chip DRAM Size: 4 GiB Channels: 1 Width: 64-bit Data Rate: 3200 MT/s

VirtualMemory physical capacity: 8588881920 num_ppages: 2096895
VirtualMemory page size: 4096 log2_page_size: 12

CPU 0 runs ipc1_public/server_003.champsimtrace.xz
Basic BTB sets: 1024 ways: 8 indirect buffer size: 4096 RAS size: 64
cpu0_STLB arbitrary stride prefetcher
cpu0_L1D next line prefetcher
WARNING: The extended signature CACHE::prefetch_line(ip, base_addr, pf_addr, fill_this_level, prefetch_metadata) is deprecated.
WARNING: Use CACHE::prefetch_line(pf_addr, fill_this_level, prefetch_metadata) instead.
Heartbeat CPU 0 instructions: 10000004 cycles: 2643886 heartbeat IPC: 3.78231 cumulative IPC: 3.78231 (Simulation time: 0 hr 0 min 23 sec) 
Heartbeat CPU 0 instructions: 20000000 cycles: 5278533 heartbeat IPC: 3.79557 cumulative IPC: 3.78893 (Simulation time: 0 hr 0 min 44 sec) 

Warmup complete CPU 0 instructions: 25000001 cycles: 6601560 (Simulation time: 0 hr 0 min 54 sec) 

Heartbeat CPU 0 instructions: 30000004 cycles: 10272427 heartbeat IPC: 2.00245 cumulative IPC: 1.36208 (Simulation time: 0 hr 1 min 12 sec) 
Heartbeat CPU 0 instructions: 40000004 cycles: 19364072 heartbeat IPC: 1.09991 cumulative IPC: 1.17532 (Simulation time: 0 hr 1 min 52 sec) 
Heartbeat CPU 0 instructions: 50000002 cycles: 27730028 heartbeat IPC: 1.19532 cumulative IPC: 1.18324 (Simulation time: 0 hr 2 min 32 sec) 
Finished CPU 0 instructions: 25000001 cycles: 21128468 cumulative IPC: 1.18324 (Simulation time: 0 hr 2 min 32 sec) 

ChampSim completed all CPUs

Region of Interest Statistics

CPU 0 cumulative IPC: 1.18324 instructions: 25000001 cycles: 21128468
cpu0_DTLB TOTAL     ACCESS:    5239265  HIT:    5022160  MISS:     217105
cpu0_DTLB LOAD      ACCESS:    3704919  HIT:    3501081  MISS:     203838
cpu0_DTLB RFO       ACCESS:    1534346  HIT:    1521079  MISS:      13267
cpu0_DTLB PREFETCH  ACCESS:          0  HIT:          0  MISS:          0
cpu0_DTLB WRITEBACK ACCESS:          0  HIT:          0  MISS:          0
cpu0_DTLB TRANSLATION ACCESS:          0  HIT:          0  MISS:          0
cpu0_DTLB PREFETCH  REQUESTED:          0  ISSUED:          0  USEFUL:          0  USELESS:          0
cpu0_DTLB AVERAGE MISS LATENCY: 11.1516 cycles
cpu0_ITLB TOTAL     ACCESS:    2043048  HIT:    1972572  MISS:      70476
cpu0_ITLB LOAD      ACCESS:    2043048  HIT:    1972572  MISS:      70476
cpu0_ITLB RFO       ACCESS:          0  HIT:          0  MISS:          0
cpu0_ITLB PREFETCH  ACCESS:          0  HIT:          0  MISS:          0
cpu0_ITLB WRITEBACK ACCESS:          0  HIT:          0  MISS:          0
cpu0_ITLB TRANSLATION ACCESS:          0  HIT:          0  MISS:          0
cpu0_ITLB PREFETCH  REQUESTED:          0  ISSUED:          0  USEFUL:          0  USELESS:          0
cpu0_ITLB AVERAGE MISS LATENCY: 10.3802 cycles
cpu0_L1I TOTAL     ACCESS:    2713674  HIT:    2247983  MISS:     465691
cpu0_L1I LOAD      ACCESS:    2713674  HIT:    2247983  MISS:     465691
cpu0_L1I RFO       ACCESS:          0  HIT:          0  MISS:          0
cpu0_L1I PREFETCH  ACCESS:          0  HIT:          0  MISS:          0
cpu0_L1I WRITEBACK ACCESS:          0  HIT:          0  MISS:          0
cpu0_L1I TRANSLATION ACCESS:          0  HIT:          0  MISS:          0
cpu0_L1I PREFETCH  REQUESTED:          0  ISSUED:          0  USEFUL:          0  USELESS:          0
cpu0_L1I AVERAGE MISS LATENCY: 24.2504 cycles
cpu0_STLB TOTAL     ACCESS:     287581  HIT:     261064  MISS:      26517
cpu0_STLB LOAD      ACCESS:     274314  HIT:     249184  MISS:      25130
cpu0_STLB RFO       ACCESS:      13267  HIT:      11880  MISS:       1387
cpu0_STLB PREFETCH  ACCESS:          0  HIT:          0  MISS:          0
cpu0_STLB WRITEBACK ACCESS:          0  HIT:          0  MISS:          0
cpu0_STLB TRANSLATION ACCESS:          0  HIT:          0  MISS:          0
cpu0_STLB PREFETCH  REQUESTED:         75  ISSUED:         11  USEFUL:          0  USELESS:          0
cpu0_STLB AVERAGE MISS LATENCY: 21.0462 cycles
cpu0_L1D TOTAL     ACCESS:   10055980  HIT:    9419919  MISS:     636061
cpu0_L1D LOAD      ACCESS:    3891118  HIT:    3601103  MISS:     290015
cpu0_L1D RFO       ACCESS:    2350875  HIT:    2283188  MISS:      67687
cpu0_L1D PREFETCH  ACCESS:    3788119  HIT:    3514064  MISS:     274055
cpu0_L1D WRITEBACK ACCESS:          0  HIT:          0  MISS:          0
cpu0_L1D TRANSLATION ACCESS:      25868  HIT:      21564  MISS:       4304
cpu0_L1D PREFETCH  REQUESTED:    3921339  ISSUED:    3900112  USEFUL:     204209  USELESS:      85587
cpu0_L1D AVERAGE MISS LATENCY: 40.8815 cycles
cpu0_L2C TOTAL     ACCESS:    1243799  HIT:     865062  MISS:     378737
cpu0_L2C LOAD      ACCESS:     742894  HIT:     506503  MISS:     236391
cpu0_L2C RFO       ACCESS:      64758  HIT:      20188  MISS:      44570
cpu0_L2C PREFETCH  ACCESS:     289753  HIT:     193295  MISS:      96458
cpu0_L2C WRITEBACK ACCESS:     142090  HIT:     141680  MISS:        410
cpu0_L2C TRANSLATION ACCESS:       4304  HIT:       3396  MISS:        908
cpu0_L2C PREFETCH  REQUESTED:          0  ISSUED:          0  USEFUL:          0  USELESS:          0
cpu0_L2C AVERAGE MISS LATENCY: 69.724 cycles
LLC TOTAL     ACCESS:     459677  HIT:     387355  MISS:      72322
LLC LOAD      ACCESS:     236388  HIT:     214382  MISS:      22006
LLC RFO       ACCESS:      44569  HIT:      17263  MISS:      27306
LLC PREFETCH  ACCESS:      96457  HIT:      73624  MISS:      22833
LLC WRITEBACK ACCESS:      81355  HIT:      81232  MISS:        123
LLC TRANSLATION ACCESS:        908  HIT:        854  MISS:         54
LLC PREFETCH  REQUESTED:          0  ISSUED:          0  USEFUL:          0  USELESS:          0
LLC AVERAGE MISS LATENCY: 255.269 cycles

DRAM Statistics
 CHANNEL 0
 RQ ROW_BUFFER_HIT:      17451  ROW_BUFFER_MISS:      54746
 DBUS AVG_CONGESTED_CYCLE:    3.90454
 WQ ROW_BUFFER_HIT:       5241  ROW_BUFFER_MISS:      28611  FULL:          0


CPU 0 Branch Prediction Accuracy: 93.3398% MPKI: 13.8515 Average ROB Occupancy at Mispredict: 123.764
Branch type MPKI
BRANCH_DIRECT_JUMP: 0.19824
BRANCH_INDIRECT: 0.51728
BRANCH_CONDITIONAL: 9.45216
BRANCH_DIRECT_CALL: 0.37436
BRANCH_INDIRECT_CALL: 2.6942
BRANCH_RETURN: 0.61524

