
*** ChampSim Multicore Out-of-Order Simulator ***

Warmup Instructions: 25000000
Simulation Instructions: 25000000
Number of CPUs: 1
Off-chip DRAM Size: 4 GiB Channels: 1 Width: 64-bit Data Rate: 3200 MT/s

VirtualMemory physical capacity: 8588881920 num_ppages: 2096895
VirtualMemory page size: 4096 log2_page_size: 12

CPU 0 runs ipc1_public/server_001.champsimtrace.xz
Basic BTB sets: 1024 ways: 8 indirect buffer size: 4096 RAS size: 64
CPU 0 next line instruction prefetcher
cpu0_L1D next line prefetcher
WARNING: The extended signature CACHE::prefetch_line(ip, base_addr, pf_addr, fill_this_level, prefetch_metadata) is deprecated.
WARNING: Use CACHE::prefetch_line(pf_addr, fill_this_level, prefetch_metadata) instead.
Heartbeat CPU 0 instructions: 10000000 cycles: 2539202 heartbeat IPC: 3.93825 cumulative IPC: 3.93825 (Simulation time: 0 hr 0 min 22 sec) 
Heartbeat CPU 0 instructions: 20000000 cycles: 5094921 heartbeat IPC: 3.91279 cumulative IPC: 3.92548 (Simulation time: 0 hr 0 min 45 sec) 

Warmup complete CPU 0 instructions: 25000004 cycles: 6371815 (Simulation time: 0 hr 0 min 56 sec) 

Heartbeat CPU 0 instructions: 30000003 cycles: 9855524 heartbeat IPC: 2.10057 cumulative IPC: 1.43525 (Simulation time: 0 hr 1 min 15 sec) 
Heartbeat CPU 0 instructions: 40000001 cycles: 17892003 heartbeat IPC: 1.24433 cumulative IPC: 1.30206 (Simulation time: 0 hr 1 min 57 sec) 
Heartbeat CPU 0 instructions: 50000003 cycles: 25473843 heartbeat IPC: 1.31894 cumulative IPC: 1.30876 (Simulation time: 0 hr 2 min 36 sec) 
Finished CPU 0 instructions: 25000004 cycles: 19102029 cumulative IPC: 1.30876 (Simulation time: 0 hr 2 min 36 sec) 

ChampSim completed all CPUs

Region of Interest Statistics

CPU 0 cumulative IPC: 1.30876 instructions: 25000004 cycles: 19102029
cpu0_DTLB TOTAL     ACCESS:    4823686  HIT:    4668773  MISS:     154913
cpu0_DTLB LOAD      ACCESS:    3040332  HIT:    2895949  MISS:     144383
cpu0_DTLB RFO       ACCESS:    1783354  HIT:    1772824  MISS:      10530
cpu0_DTLB PREFETCH  ACCESS:          0  HIT:          0  MISS:          0
cpu0_DTLB WRITEBACK ACCESS:          0  HIT:          0  MISS:          0
cpu0_DTLB TRANSLATION ACCESS:          0  HIT:          0  MISS:          0
cpu0_DTLB PREFETCH  REQUESTED:          0  ISSUED:          0  USEFUL:          0  USELESS:          0
cpu0_DTLB AVERAGE MISS LATENCY: 14.4617 cycles
cpu0_ITLB TOTAL     ACCESS:    1205749  HIT:    1153909  MISS:      51840
cpu0_ITLB LOAD      ACCESS:    1205749  HIT:    1153909  MISS:      51840
cpu0_ITLB RFO       ACCESS:          0  HIT:          0  MISS:          0
cpu0_ITLB PREFETCH  ACCESS:          0  HIT:          0  MISS:          0
cpu0_ITLB WRITEBACK ACCESS:          0  HIT:          0  MISS:          0
cpu0_ITLB TRANSLATION ACCESS:          0  HIT:          0  MISS:          0
cpu0_ITLB PREFETCH  REQUESTED:          0  ISSUED:          0  USEFUL:          0  USELESS:          0
cpu0_ITLB AVERAGE MISS LATENCY: 10.0885 cycles
cpu0_L1I TOTAL     ACCESS:    4935707  HIT:    4485336  MISS:     450371
cpu0_L1I LOAD      ACCESS:    2577199  HIT:    2279200  MISS:     297999
cpu0_L1I RFO       ACCESS:          0  HIT:          0  MISS:          0
cpu0_L1I PREFETCH  ACCESS:    2358508  HIT:    2206136  MISS:     152372
cpu0_L1I WRITEBACK ACCESS:          0  HIT:          0  MISS:          0
cpu0_L1I TRANSLATION ACCESS:          0  HIT:          0  MISS:          0
cpu0_L1I PREFETCH  REQUESTED:    2589782  ISSUED:    2589265  USEFUL:     127630  USELESS:      45985
cpu0_L1I AVERAGE MISS LATENCY: 27.54 cycles
cpu0_STLB TOTAL     ACCESS:     206753  HIT:     191299  MISS:      15454
cpu0_STLB LOAD      ACCESS:     196223  HIT:     181745  MISS:      14478
cpu0_STLB RFO       ACCESS:      10530  HIT:       9554  MISS:        976
cpu0_STLB PREFETCH  ACCESS:          0  HIT:          0  MISS:          0
cpu0_STLB WRITEBACK ACCESS:          0  HIT:          0  MISS:          0
cpu0_STLB TRANSLATION ACCESS:          0  HIT:          0  MISS:          0
cpu0_STLB PREFETCH  REQUESTED:          0  ISSUED:          0  USEFUL:          0  USELESS:          0
cpu0_STLB AVERAGE MISS LATENCY: 58.1085 cycles
cpu0_L1D TOTAL     ACCESS:    8670227  HIT:    8392488  MISS:     277739
cpu0_L1D LOAD      ACCESS:    3066451  HIT:    2951093  MISS:     115358
cpu0_L1D RFO       ACCESS:    2607906  HIT:    2561581  MISS:      46325
cpu0_L1D PREFETCH  ACCESS:    2980811  HIT:    2867516  MISS:     113295
cpu0_L1D WRITEBACK ACCESS:          0  HIT:          0  MISS:          0
cpu0_L1D TRANSLATION ACCESS:      15059  HIT:      12298  MISS:       2761
cpu0_L1D PREFETCH  REQUESTED:    3090361  ISSUED:    3080052  USEFUL:     113674  USELESS:      24100
cpu0_L1D AVERAGE MISS LATENCY: 152.843 cycles
cpu0_L2C TOTAL     ACCESS:     836957  HIT:     565858  MISS:     271099
cpu0_L2C LOAD      ACCESS:     368603  HIT:     265334  MISS:     103269
cpu0_L2C RFO       ACCESS:      45194  HIT:       4851  MISS:      40343
cpu0_L2C PREFETCH  ACCESS:     311542  HIT:     185351  MISS:     126191
cpu0_L2C WRITEBACK ACCESS:     108857  HIT:     108530  MISS:        327
cpu0_L2C TRANSLATION ACCESS:       2761  HIT:       1792  MISS:        969
cpu0_L2C PREFETCH  REQUESTED:          0  ISSUED:          0  USEFUL:          0  USELESS:          0
cpu0_L2C AVERAGE MISS LATENCY: 189.678 cycles
LLC TOTAL     ACCESS:     362823  HIT:     219609  MISS:     143214
LLC LOAD      ACCESS:     103267  HIT:      63812  MISS:      39455
LLC RFO       ACCESS:      40343  HIT:       4071  MISS:      36272
LLC PREFETCH  ACCESS:     126191  HIT:      58881  MISS:      67310
LLC WRITEBACK ACCESS:      92053  HIT:      92016  MISS:         37
LLC TRANSLATION ACCESS:        969  HIT:        829  MISS:        140
LLC PREFETCH  REQUESTED:          0  ISSUED:          0  USEFUL:          0  USELESS:          0
LLC AVERAGE MISS LATENCY: 319.345 cycles

DRAM Statistics
 CHANNEL 0
 RQ ROW_BUFFER_HIT:      26543  ROW_BUFFER_MISS:     116580
 DBUS AVG_CONGESTED_CYCLE:    3.90566
 WQ ROW_BUFFER_HIT:      10696  ROW_BUFFER_MISS:      64049  FULL:          0


CPU 0 Branch Prediction Accuracy: 96.6016% MPKI: 5.79844 Average ROB Occupancy at Mispredict: 178.207
Branch type MPKI
BRANCH_DIRECT_JUMP: 0.0432
BRANCH_INDIRECT: 0.12976
BRANCH_CONDITIONAL: 4.13248
BRANCH_DIRECT_CALL: 0.06328
BRANCH_INDIRECT_CALL: 0.0208
BRANCH_RETURN: 1.40892

