
*** ChampSim Multicore Out-of-Order Simulator ***

Warmup Instructions: 25000000
Simulation Instructions: 25000000
Number of CPUs: 1
Off-chip DRAM Size: 4 GiB Channels: 1 Width: 64-bit Data Rate: 3200 MT/s

VirtualMemory physical capacity: 8588881920 num_ppages: 2096895
VirtualMemory page size: 4096 log2_page_size: 12

CPU 0 runs ipc1_public/server_003.champsimtrace.xz
Basic BTB sets: 1024 ways: 8 indirect buffer size: 4096 RAS size: 64
cpu0_L1D next line prefetcher
WARNING: The extended signature CACHE::prefetch_line(ip, base_addr, pf_addr, fill_this_level, prefetch_metadata) is deprecated.
WARNING: Use CACHE::prefetch_line(pf_addr, fill_this_level, prefetch_metadata) instead.
Heartbeat CPU 0 instructions: 10000004 cycles: 2644331 heartbeat IPC: 3.78168 cumulative IPC: 3.78168 (Simulation time: 0 hr 0 min 33 sec) 
Heartbeat CPU 0 instructions: 20000000 cycles: 5279240 heartbeat IPC: 3.7952 cumulative IPC: 3.78842 (Simulation time: 0 hr 1 min 7 sec) 

Warmup complete CPU 0 instructions: 25000001 cycles: 6602218 (Simulation time: 0 hr 1 min 23 sec) 

Heartbeat CPU 0 instructions: 30000004 cycles: 10307151 heartbeat IPC: 1.9889 cumulative IPC: 1.34955 (Simulation time: 0 hr 1 min 52 sec) 
Heartbeat CPU 0 instructions: 40000004 cycles: 19441754 heartbeat IPC: 1.09474 cumulative IPC: 1.16827 (Simulation time: 0 hr 2 min 55 sec) 
Heartbeat CPU 0 instructions: 50000002 cycles: 27838718 heartbeat IPC: 1.19091 cumulative IPC: 1.17722 (Simulation time: 0 hr 4 min 3 sec) 
Finished CPU 0 instructions: 25000001 cycles: 21236500 cumulative IPC: 1.17722 (Simulation time: 0 hr 4 min 3 sec) 

ChampSim completed all CPUs

Region of Interest Statistics

CPU 0 cumulative IPC: 1.17722 instructions: 25000001 cycles: 21236500
cpu0_DTLB TOTAL     ACCESS:    5238880  HIT:    5021803  MISS:     217077
cpu0_DTLB LOAD      ACCESS:    3704253  HIT:    3500423  MISS:     203830
cpu0_DTLB RFO       ACCESS:    1534627  HIT:    1521380  MISS:      13247
cpu0_DTLB PREFETCH  ACCESS:          0  HIT:          0  MISS:          0
cpu0_DTLB WRITEBACK ACCESS:          0  HIT:          0  MISS:          0
cpu0_DTLB TRANSLATION ACCESS:          0  HIT:          0  MISS:          0
cpu0_DTLB PREFETCH  REQUESTED:          0  ISSUED:          0  USEFUL:          0  USELESS:          0
cpu0_DTLB AVERAGE MISS LATENCY: 11.1508 cycles
cpu0_ITLB TOTAL     ACCESS:    2043262  HIT:    1972786  MISS:      70476
cpu0_ITLB LOAD      ACCESS:    2043262  HIT:    1972786  MISS:      70476
cpu0_ITLB RFO       ACCESS:          0  HIT:          0  MISS:          0
cpu0_ITLB PREFETCH  ACCESS:          0  HIT:          0  MISS:          0
cpu0_ITLB WRITEBACK ACCESS:          0  HIT:          0  MISS:          0
cpu0_ITLB TRANSLATION ACCESS:          0  HIT:          0  MISS:          0
cpu0_ITLB PREFETCH  REQUESTED:          0  ISSUED:          0  USEFUL:          0  USELESS:          0
cpu0_ITLB AVERAGE MISS LATENCY: 10.4136 cycles
cpu0_L1I TOTAL     ACCESS:    2713517  HIT:    2247804  MISS:     465713
cpu0_L1I LOAD      ACCESS:    2713517  HIT:    2247804  MISS:     465713
cpu0_L1I RFO       ACCESS:          0  HIT:          0  MISS:          0
cpu0_L1I PREFETCH  ACCESS:          0  HIT:          0  MISS:          0
cpu0_L1I WRITEBACK ACCESS:          0  HIT:          0  MISS:          0
cpu0_L1I TRANSLATION ACCESS:          0  HIT:          0  MISS:          0
cpu0_L1I PREFETCH  REQUESTED:          0  ISSUED:          0  USEFUL:          0  USELESS:          0
cpu0_L1I AVERAGE MISS LATENCY: 24.5194 cycles
cpu0_STLB TOTAL     ACCESS:     287553  HIT:     261033  MISS:      26520
cpu0_STLB LOAD      ACCESS:     274306  HIT:     249172  MISS:      25134
cpu0_STLB RFO       ACCESS:      13247  HIT:      11861  MISS:       1386
cpu0_STLB PREFETCH  ACCESS:          0  HIT:          0  MISS:          0
cpu0_STLB WRITEBACK ACCESS:          0  HIT:          0  MISS:          0
cpu0_STLB TRANSLATION ACCESS:          0  HIT:          0  MISS:          0
cpu0_STLB PREFETCH  REQUESTED:          0  ISSUED:          0  USEFUL:          0  USELESS:          0
cpu0_STLB AVERAGE MISS LATENCY: 21.1223 cycles
cpu0_L1D TOTAL     ACCESS:   10053490  HIT:    9417388  MISS:     636102
cpu0_L1D LOAD      ACCESS:    3890045  HIT:    3599983  MISS:     290062
cpu0_L1D RFO       ACCESS:    2350707  HIT:    2283030  MISS:      67677
cpu0_L1D PREFETCH  ACCESS:    3786906  HIT:    3512848  MISS:     274058
cpu0_L1D WRITEBACK ACCESS:          0  HIT:          0  MISS:          0
cpu0_L1D TRANSLATION ACCESS:      25832  HIT:      21527  MISS:       4305
cpu0_L1D PREFETCH  REQUESTED:    3920480  ISSUED:    3899155  USEFUL:     204276  USELESS:      85555
cpu0_L1D AVERAGE MISS LATENCY: 41.2908 cycles
cpu0_L2C TOTAL     ACCESS:    1243874  HIT:     861515  MISS:     382359
cpu0_L2C LOAD      ACCESS:     742957  HIT:     504107  MISS:     238850
cpu0_L2C RFO       ACCESS:      64717  HIT:      20165  MISS:      44552
cpu0_L2C PREFETCH  ACCESS:     289786  HIT:     192286  MISS:      97500
cpu0_L2C WRITEBACK ACCESS:     142109  HIT:     141578  MISS:        531
cpu0_L2C TRANSLATION ACCESS:       4305  HIT:       3379  MISS:        926
cpu0_L2C PREFETCH  REQUESTED:          0  ISSUED:          0  USEFUL:          0  USELESS:          0
cpu0_L2C AVERAGE MISS LATENCY: 70.1689 cycles
LLC TOTAL     ACCESS:     463003  HIT:     389307  MISS:      73696
LLC LOAD      ACCESS:     238846  HIT:     215928  MISS:      22918
LLC RFO       ACCESS:      44551  HIT:      17174  MISS:      27377
LLC PREFETCH  ACCESS:      97498  HIT:      74303  MISS:      23195
LLC WRITEBACK ACCESS:      81182  HIT:      81025  MISS:        157
LLC TRANSLATION ACCESS:        926  HIT:        877  MISS:         49
LLC PREFETCH  REQUESTED:          0  ISSUED:          0  USEFUL:          0  USELESS:          0
LLC AVERAGE MISS LATENCY: 255.249 cycles

DRAM Statistics
 CHANNEL 0
 RQ ROW_BUFFER_HIT:      17645  ROW_BUFFER_MISS:      55891
 DBUS AVG_CONGESTED_CYCLE:    3.90219
 WQ ROW_BUFFER_HIT:       5374  ROW_BUFFER_MISS:      28770  FULL:          0


CPU 0 Branch Prediction Accuracy: 93.3398% MPKI: 13.8515 Average ROB Occupancy at Mispredict: 124.229
Branch type MPKI
BRANCH_DIRECT_JUMP: 0.19824
BRANCH_INDIRECT: 0.51728
BRANCH_CONDITIONAL: 9.45216
BRANCH_DIRECT_CALL: 0.37436
BRANCH_INDIRECT_CALL: 2.6942
BRANCH_RETURN: 0.61524

