
*** ChampSim Multicore Out-of-Order Simulator ***

Warmup Instructions: 25000000
Simulation Instructions: 25000000
Number of CPUs: 1
Off-chip DRAM Size: 4 GiB Channels: 1 Width: 64-bit Data Rate: 3200 MT/s

VirtualMemory physical capacity: 8588881920 num_ppages: 2096895
VirtualMemory page size: 4096 log2_page_size: 12

CPU 0 runs ipc1_public/server_001.champsimtrace.xz
Basic BTB sets: 1024 ways: 8 indirect buffer size: 4096 RAS size: 64
CPU 0 Entangling prefetcher
cpu0_STLB next line prefetcher
cpu0_L1D next line prefetcher
WARNING: The extended signature CACHE::prefetch_line(ip, base_addr, pf_addr, fill_this_level, prefetch_metadata) is deprecated.
WARNING: Use CACHE::prefetch_line(pf_addr, fill_this_level, prefetch_metadata) instead.
Heartbeat CPU 0 instructions: 10000000 cycles: 2533507 heartbeat IPC: 3.9471 cumulative IPC: 3.9471 (Simulation time: 0 hr 0 min 29 sec) 
Heartbeat CPU 0 instructions: 20000000 cycles: 5075251 heartbeat IPC: 3.93431 cumulative IPC: 3.94069 (Simulation time: 0 hr 0 min 58 sec) 

Warmup complete CPU 0 instructions: 25000003 cycles: 6345748 (Simulation time: 0 hr 1 min 13 sec) 

Heartbeat CPU 0 instructions: 30000003 cycles: 9482257 heartbeat IPC: 2.26911 cumulative IPC: 1.59413 (Simulation time: 0 hr 1 min 38 sec) 
Heartbeat CPU 0 instructions: 40000001 cycles: 16967014 heartbeat IPC: 1.33605 cumulative IPC: 1.41226 (Simulation time: 0 hr 2 min 34 sec) 
Heartbeat CPU 0 instructions: 50000001 cycles: 24016473 heartbeat IPC: 1.41855 cumulative IPC: 1.41477 (Simulation time: 0 hr 3 min 28 sec) 
Finished CPU 0 instructions: 25000003 cycles: 17670726 cumulative IPC: 1.41477 (Simulation time: 0 hr 3 min 28 sec) 

ChampSim completed all CPUs

Region of Interest Statistics

CPU 0 cumulative IPC: 1.41477 instructions: 25000003 cycles: 17670726
cpu0_DTLB TOTAL     ACCESS:    4762566  HIT:    4607496  MISS:     155070
cpu0_DTLB LOAD      ACCESS:    2990877  HIT:    2846398  MISS:     144479
cpu0_DTLB RFO       ACCESS:    1771689  HIT:    1761098  MISS:      10591
cpu0_DTLB PREFETCH  ACCESS:          0  HIT:          0  MISS:          0
cpu0_DTLB WRITEBACK ACCESS:          0  HIT:          0  MISS:          0
cpu0_DTLB TRANSLATION ACCESS:          0  HIT:          0  MISS:          0
cpu0_DTLB PREFETCH  REQUESTED:          0  ISSUED:          0  USEFUL:          0  USELESS:          0
cpu0_DTLB AVERAGE MISS LATENCY: 14.5454 cycles
cpu0_ITLB TOTAL     ACCESS:    1205281  HIT:    1153438  MISS:      51843
cpu0_ITLB LOAD      ACCESS:    1205281  HIT:    1153438  MISS:      51843
cpu0_ITLB RFO       ACCESS:          0  HIT:          0  MISS:          0
cpu0_ITLB PREFETCH  ACCESS:          0  HIT:          0  MISS:          0
cpu0_ITLB WRITEBACK ACCESS:          0  HIT:          0  MISS:          0
cpu0_ITLB TRANSLATION ACCESS:          0  HIT:          0  MISS:          0
cpu0_ITLB PREFETCH  REQUESTED:          0  ISSUED:          0  USEFUL:          0  USELESS:          0
cpu0_ITLB AVERAGE MISS LATENCY: 10.3671 cycles
cpu0_L1I TOTAL     ACCESS:   10078967  HIT:    9701814  MISS:     377153
cpu0_L1I LOAD      ACCESS:    2586585  HIT:    2552845  MISS:      33740
cpu0_L1I RFO       ACCESS:          0  HIT:          0  MISS:          0
cpu0_L1I PREFETCH  ACCESS:    7492382  HIT:    7148969  MISS:     343413
cpu0_L1I WRITEBACK ACCESS:          0  HIT:          0  MISS:          0
cpu0_L1I TRANSLATION ACCESS:          0  HIT:          0  MISS:          0
cpu0_L1I PREFETCH  REQUESTED:   10418072  ISSUED:    7512400  USEFUL:     320258  USELESS:      34261
cpu0_L1I AVERAGE MISS LATENCY: 34.4821 cycles
cpu0_STLB TOTAL     ACCESS:     206913  HIT:     191457  MISS:      15456
cpu0_STLB LOAD      ACCESS:     196322  HIT:     181843  MISS:      14479
cpu0_STLB RFO       ACCESS:      10591  HIT:       9614  MISS:        977
cpu0_STLB PREFETCH  ACCESS:          0  HIT:          0  MISS:          0
cpu0_STLB WRITEBACK ACCESS:          0  HIT:          0  MISS:          0
cpu0_STLB TRANSLATION ACCESS:          0  HIT:          0  MISS:          0
cpu0_STLB PREFETCH  REQUESTED:     196322  ISSUED:          0  USEFUL:          0  USELESS:          0
cpu0_STLB AVERAGE MISS LATENCY: 59.9223 cycles
cpu0_L1D TOTAL     ACCESS:    8566653  HIT:    8288833  MISS:     277820
cpu0_L1D LOAD      ACCESS:    3018614  HIT:    2901912  MISS:     116702
cpu0_L1D RFO       ACCESS:    2602767  HIT:    2556539  MISS:      46228
cpu0_L1D PREFETCH  ACCESS:    2930238  HIT:    2818108  MISS:     112130
cpu0_L1D WRITEBACK ACCESS:          0  HIT:          0  MISS:          0
cpu0_L1D TRANSLATION ACCESS:      15034  HIT:      12274  MISS:       2760
cpu0_L1D PREFETCH  REQUESTED:    3043011  ISSUED:    3031123  USEFUL:     112545  USELESS:      24738
cpu0_L1D AVERAGE MISS LATENCY: 162.5 cycles
cpu0_L2C TOTAL     ACCESS:     763816  HIT:     500775  MISS:     263041
cpu0_L2C LOAD      ACCESS:     115061  HIT:      52850  MISS:      62211
cpu0_L2C RFO       ACCESS:      45153  HIT:       4864  MISS:      40289
cpu0_L2C PREFETCH  ACCESS:     491989  HIT:     332744  MISS:     159245
cpu0_L2C WRITEBACK ACCESS:     108853  HIT:     108550  MISS:        303
cpu0_L2C TRANSLATION ACCESS:       2760  HIT:       1767  MISS:        993
cpu0_L2C PREFETCH  REQUESTED:          0  ISSUED:          0  USEFUL:          0  USELESS:          0
cpu0_L2C AVERAGE MISS LATENCY: 215.27 cycles
LLC TOTAL     ACCESS:     354885  HIT:     218992  MISS:     135893
LLC LOAD      ACCESS:      62210  HIT:      34312  MISS:      27898
LLC RFO       ACCESS:      40289  HIT:       4147  MISS:      36142
LLC PREFETCH  ACCESS:     159244  HIT:      87552  MISS:      71692
LLC WRITEBACK ACCESS:      92149  HIT:      92117  MISS:         32
LLC TRANSLATION ACCESS:        993  HIT:        864  MISS:        129
LLC PREFETCH  REQUESTED:          0  ISSUED:          0  USEFUL:          0  USELESS:          0
LLC AVERAGE MISS LATENCY: 376.075 cycles
CPU 0 L1I Entangling prefetcher final stats
IP accesses: 1f9c 7e700 26949 / 2588142
IP misses: a2d 28b40 508 / 35297
IP hits: 0 0 0 / 0
IP late: 2368 8da00 374 / 26000
IP wrong: edd 3b740 495 / 77476
miss rate: 0.013638
coverage: 0
coverage_late: 0.736607
accuracy: 0
accuracy_late: 0.251266
discarded: 0
evicts entangled j table: 0
evicts entangled k table: 5775
max bb size: 111
formats: 510 1556 5606 1088 730 1584 0 
hist_lookups: 4005 5241 3775 3275 2580 1947 1645 1366 1006 643 503 350 277 207 103 0 15 1578 
hist_lookups_evict: 0.052602 %
hist_lookups_shortlat: 5.53374 %
bb_found_hist: 0 446702 197334 104293 100034 57375 40778 21561 24806 14706 3883 2220 3530 6575 6279 363 2867 2965 30 395 493 5950 429 0 0 856 8 3604 0 0 0 0 0 8 0 0 0 0 0 0 0 0 7 0 0 0 0 8 0 0 0 0 0 0 0 0 0 0 0 0 0 0 0 0 
bb_found_summary: 3220513 1048059 3.07284
entangled_found_hist: 0 257370 334222 392255 12057 6446 256 0 
entangled_found_summary: 2184573 1002606 2.17889
bb_ent_found_hist: 0 784859 310535 167664 129916 125265 86971 19083 32067 9661 4574 2628 1016 11622 824 726 11957 7567 242 1661 3798 10788 1090 0 0 0 16 6815 0 0 0 0 0 24 0 0 0 0 0 0 0 0 738 0 0 0 0 20 0 0 0 0 0 0 0 0 0 0 0 0 0 0 0 0 
bb_ent_found_summary: 5213657 1732127 3.00997

DRAM Statistics
 CHANNEL 0
 RQ ROW_BUFFER_HIT:      25359  ROW_BUFFER_MISS:     110444
 DBUS AVG_CONGESTED_CYCLE:    3.92702
 WQ ROW_BUFFER_HIT:       9179  ROW_BUFFER_MISS:      65266  FULL:          0


CPU 0 Branch Prediction Accuracy: 96.6016% MPKI: 5.79848 Average ROB Occupancy at Mispredict: 200.704
Branch type MPKI
BRANCH_DIRECT_JUMP: 0.0432
BRANCH_INDIRECT: 0.12976
BRANCH_CONDITIONAL: 4.13252
BRANCH_DIRECT_CALL: 0.06328
BRANCH_INDIRECT_CALL: 0.0208
BRANCH_RETURN: 1.40892

