
*** ChampSim Multicore Out-of-Order Simulator ***

Warmup Instructions: 25000000
Simulation Instructions: 25000000
Number of CPUs: 1
Off-chip DRAM Size: 4 GiB Channels: 1 Width: 64-bit Data Rate: 3200 MT/s

VirtualMemory physical capacity: 8588881920 num_ppages: 2096895
VirtualMemory page size: 4096 log2_page_size: 12

CPU 0 runs ipc1_public/server_001.champsimtrace.xz
Basic BTB sets: 1024 ways: 8 indirect buffer size: 4096 RAS size: 64
CPU 0 Entangling prefetcher
CPU 0 Entangling TLB prefetcher
cpu0_L1D next line prefetcher
WARNING: The extended signature CACHE::prefetch_line(ip, base_addr, pf_addr, fill_this_level, prefetch_metadata) is deprecated.
WARNING: Use CACHE::prefetch_line(pf_addr, fill_this_level, prefetch_metadata) instead.
Heartbeat CPU 0 instructions: 10000001 cycles: 2533481 heartbeat IPC: 3.94714 cumulative IPC: 3.94714 (Simulation time: 0 hr 0 min 18 sec) 
Heartbeat CPU 0 instructions: 20000003 cycles: 5075257 heartbeat IPC: 3.93426 cumulative IPC: 3.94069 (Simulation time: 0 hr 0 min 37 sec) 

Warmup complete CPU 0 instructions: 25000003 cycles: 6345913 (Simulation time: 0 hr 0 min 46 sec) 

Heartbeat CPU 0 instructions: 30000003 cycles: 9492352 heartbeat IPC: 2.26393 cumulative IPC: 1.5891 (Simulation time: 0 hr 1 min 3 sec) 
Heartbeat CPU 0 instructions: 40000001 cycles: 16969638 heartbeat IPC: 1.33738 cumulative IPC: 1.41193 (Simulation time: 0 hr 1 min 42 sec) 
Heartbeat CPU 0 instructions: 50000000 cycles: 24011303 heartbeat IPC: 1.42012 cumulative IPC: 1.4152 (Simulation time: 0 hr 2 min 20 sec) 
Finished CPU 0 instructions: 25000002 cycles: 17665391 cumulative IPC: 1.4152 (Simulation time: 0 hr 2 min 20 sec) 

ChampSim completed all CPUs

Region of Interest Statistics

CPU 0 cumulative IPC: 1.4152 instructions: 25000002 cycles: 17665391
cpu0_DTLB TOTAL     ACCESS:    4761852  HIT:    4606818  MISS:     155034
cpu0_DTLB LOAD      ACCESS:    2990262  HIT:    2845813  MISS:     144449
cpu0_DTLB RFO       ACCESS:    1771590  HIT:    1761005  MISS:      10585
cpu0_DTLB PREFETCH  ACCESS:          0  HIT:          0  MISS:          0
cpu0_DTLB WRITEBACK ACCESS:          0  HIT:          0  MISS:          0
cpu0_DTLB TRANSLATION ACCESS:          0  HIT:          0  MISS:          0
cpu0_DTLB PREFETCH  REQUESTED:          0  ISSUED:          0  USEFUL:          0  USELESS:          0
cpu0_DTLB AVERAGE MISS LATENCY: 14.3925 cycles
cpu0_ITLB TOTAL     ACCESS:    1205497  HIT:    1153654  MISS:      51843
cpu0_ITLB LOAD      ACCESS:    1205497  HIT:    1153654  MISS:      51843
cpu0_ITLB RFO       ACCESS:          0  HIT:          0  MISS:          0
cpu0_ITLB PREFETCH  ACCESS:          0  HIT:          0  MISS:          0
cpu0_ITLB WRITEBACK ACCESS:          0  HIT:          0  MISS:          0
cpu0_ITLB TRANSLATION ACCESS:          0  HIT:          0  MISS:          0
cpu0_ITLB PREFETCH  REQUESTED:          0  ISSUED:          0  USEFUL:          0  USELESS:          0
cpu0_ITLB AVERAGE MISS LATENCY: 10.3307 cycles
cpu0_L1I TOTAL     ACCESS:   10061038  HIT:    9671428  MISS:     389610
cpu0_L1I LOAD      ACCESS:    2586650  HIT:    2552515  MISS:      34135
cpu0_L1I RFO       ACCESS:          0  HIT:          0  MISS:          0
cpu0_L1I PREFETCH  ACCESS:    7474388  HIT:    7118913  MISS:     355475
cpu0_L1I WRITEBACK ACCESS:          0  HIT:          0  MISS:          0
cpu0_L1I TRANSLATION ACCESS:          0  HIT:          0  MISS:          0
cpu0_L1I PREFETCH  REQUESTED:   10568371  ISSUED:    7494932  USEFUL:     329725  USELESS:      37976
cpu0_L1I AVERAGE MISS LATENCY: 33.8031 cycles
cpu0_STLB TOTAL     ACCESS:     211389  HIT:     195910  MISS:      15479
cpu0_STLB LOAD      ACCESS:     196292  HIT:     181788  MISS:      14504
cpu0_STLB RFO       ACCESS:      10585  HIT:       9610  MISS:        975
cpu0_STLB PREFETCH  ACCESS:       4512  HIT:       4512  MISS:          0
cpu0_STLB WRITEBACK ACCESS:          0  HIT:          0  MISS:          0
cpu0_STLB TRANSLATION ACCESS:          0  HIT:          0  MISS:          0
cpu0_STLB PREFETCH  REQUESTED:     196014  ISSUED:       4644  USEFUL:          0  USELESS:          0
cpu0_STLB AVERAGE MISS LATENCY: 58.1688 cycles
cpu0_L1D TOTAL     ACCESS:    8566508  HIT:    8288672  MISS:     277836
cpu0_L1D LOAD      ACCESS:    3018144  HIT:    2901247  MISS:     116897
cpu0_L1D RFO       ACCESS:    2603781  HIT:    2557509  MISS:      46272
cpu0_L1D PREFETCH  ACCESS:    2929509  HIT:    2817604  MISS:     111905
cpu0_L1D WRITEBACK ACCESS:          0  HIT:          0  MISS:          0
cpu0_L1D TRANSLATION ACCESS:      15074  HIT:      12312  MISS:       2762
cpu0_L1D PREFETCH  REQUESTED:    3042633  ISSUED:    3030819  USEFUL:     112790  USELESS:      24725
cpu0_L1D AVERAGE MISS LATENCY: 162.211 cycles
cpu0_L2C TOTAL     ACCESS:     776284  HIT:     512017  MISS:     264267
cpu0_L2C LOAD      ACCESS:     114080  HIT:      51790  MISS:      62290
cpu0_L2C RFO       ACCESS:      45155  HIT:       4871  MISS:      40284
cpu0_L2C PREFETCH  ACCESS:     505435  HIT:     345025  MISS:     160410
cpu0_L2C WRITEBACK ACCESS:     108852  HIT:     108463  MISS:        389
cpu0_L2C TRANSLATION ACCESS:       2762  HIT:       1868  MISS:        894
cpu0_L2C PREFETCH  REQUESTED:          0  ISSUED:          0  USEFUL:          0  USELESS:          0
cpu0_L2C AVERAGE MISS LATENCY: 214.335 cycles
LLC TOTAL     ACCESS:     356220  HIT:     219910  MISS:     136310
LLC LOAD      ACCESS:      62286  HIT:      34320  MISS:      27966
LLC RFO       ACCESS:      40283  HIT:       4272  MISS:      36011
LLC PREFETCH  ACCESS:     160410  HIT:      88219  MISS:      72191
LLC WRITEBACK ACCESS:      92347  HIT:      92313  MISS:         34
LLC TRANSLATION ACCESS:        894  HIT:        786  MISS:        108
LLC PREFETCH  REQUESTED:          0  ISSUED:          0  USEFUL:          0  USELESS:          0
LLC AVERAGE MISS LATENCY: 374.874 cycles
CPU 0 L1I Entangling prefetcher final stats
IP accesses: 1f9c 7e700 26949 / 2587948
IP misses: c257 3095c0 322 / 35433
IP hits: 0 0 0 / 0
IP late: c257 3095c0 322 / 26544
IP wrong: ec0 3b000 567 / 82116
miss rate: 0.0136915
coverage: 0
coverage_late: 0.749132
accuracy: 0
accuracy_late: 0.244285
discarded: 0
evicts entangled j table: 0
evicts entangled k table: 6040
max bb size: 111
formats: 539 1598 5712 1054 815 1565 0 
hist_lookups: 3639 4831 4143 3521 2749 2027 1636 1251 879 692 498 342 235 173 122 0 21 1572 
hist_lookups_evict: 0.0741238 %
hist_lookups_shortlat: 5.54869 %
bb_found_hist: 0 437694 196788 103766 100009 57371 40767 21685 24829 15060 3840 2223 3530 6567 6279 269 2867 2969 142 395 493 5950 429 0 0 856 8 3604 0 0 0 0 0 8 0 0 0 0 0 0 0 0 7 0 0 0 0 8 0 0 0 0 0 0 0 0 0 0 0 0 0 0 0 0 
bb_found_summary: 3213057 1038413 3.0942
entangled_found_hist: 0 257641 299803 391153 16730 8730 460 0 
entangled_found_summary: 2144036 974517 2.2001
bb_ent_found_hist: 0 754444 327347 146131 127734 138647 95795 19055 27832 15067 6001 2882 1559 13685 1061 561 8951 11271 609 586 2425 15487 840 0 0 0 16 7423 0 0 0 0 0 27 0 0 0 0 0 0 0 0 744 0 0 0 0 15 0 0 0 0 0 0 0 0 0 0 0 0 0 0 0 0 
bb_ent_found_summary: 5412517 1726195 3.13552
SET:1
TAG:e FORMAT:1 ENTANGLED_ADDRESSES:0 CONF:0 0 CONF:0 0 CONF:0 0 CONF:0 0 CONF:0 0 CONF:0 BB SIZE:1
TAG:9b FORMAT:3 ENTANGLED_ADDRESSES:809c CONF:3 a840 CONF:3 1f99 CONF:3 0 CONF:0 0 CONF:0 0 CONF:0 BB SIZE:2
TAG:1ef FORMAT:5 ENTANGLED_ADDRESSES:1f6 CONF:1 1a4 CONF:1 244 CONF:2 1f0 CONF:1 1a8 CONF:0 0 CONF:0 BB SIZE:1
TAG:1f2 FORMAT:2 ENTANGLED_ADDRESSES:edb8488 CONF:3 edcaeb8 CONF:2 0 CONF:0 0 CONF:0 0 CONF:0 0 CONF:0 BB SIZE:2
TAG:29f FORMAT:6 ENTANGLED_ADDRESSES:62 CONF:3 5b CONF:3 c5 CONF:3 0 CONF:0 0 CONF:0 0 CONF:0 BB SIZE:5
TAG:99 FORMAT:6 ENTANGLED_ADDRESSES:ce CONF:3 0 CONF:0 0 CONF:0 0 CONF:0 0 CONF:0 0 CONF:0 BB SIZE:0
TAG:2b1 FORMAT:6 ENTANGLED_ADDRESSES:82 CONF:3 0 CONF:0 0 CONF:0 0 CONF:0 0 CONF:0 0 CONF:0 BB SIZE:0
TAG:a8 FORMAT:3 ENTANGLED_ADDRESSES:3e6e CONF:3 143 CONF:3 db3b CONF:3 0 CONF:0 0 CONF:0 0 CONF:0 BB SIZE:5
TAG:0 FORMAT:1 ENTANGLED_ADDRESSES:0 CONF:0 0 CONF:0 0 CONF:0 0 CONF:0 0 CONF:0 0 CONF:0 BB SIZE:0
TAG:0 FORMAT:1 ENTANGLED_ADDRESSES:0 CONF:0 0 CONF:0 0 CONF:0 0 CONF:0 0 CONF:0 0 CONF:0 BB SIZE:0
TAG:0 FORMAT:1 ENTANGLED_ADDRESSES:0 CONF:0 0 CONF:0 0 CONF:0 0 CONF:0 0 CONF:0 0 CONF:0 BB SIZE:0
TAG:0 FORMAT:1 ENTANGLED_ADDRESSES:0 CONF:0 0 CONF:0 0 CONF:0 0 CONF:0 0 CONF:0 0 CONF:0 BB SIZE:0
TAG:0 FORMAT:1 ENTANGLED_ADDRESSES:0 CONF:0 0 CONF:0 0 CONF:0 0 CONF:0 0 CONF:0 0 CONF:0 BB SIZE:0
TAG:0 FORMAT:1 ENTANGLED_ADDRESSES:0 CONF:0 0 CONF:0 0 CONF:0 0 CONF:0 0 CONF:0 0 CONF:0 BB SIZE:0
TAG:0 FORMAT:1 ENTANGLED_ADDRESSES:0 CONF:0 0 CONF:0 0 CONF:0 0 CONF:0 0 CONF:0 0 CONF:0 BB SIZE:0
TAG:0 FORMAT:1 ENTANGLED_ADDRESSES:0 CONF:0 0 CONF:0 0 CONF:0 0 CONF:0 0 CONF:0 0 CONF:0 BB SIZE:0
SET:2
TAG:e FORMAT:3 ENTANGLED_ADDRESSES:14842 CONF:2 ac8d CONF:3 f4bf CONF:3 0 CONF:0 0 CONF:0 0 CONF:0 BB SIZE:2
TAG:a6 FORMAT:3 ENTANGLED_ADDRESSES:d062 CONF:2 d063 CONF:2 d060 CONF:2 0 CONF:0 0 CONF:0 0 CONF:0 BB SIZE:1
TAG:bd FORMAT:3 ENTANGLED_ADDRESSES:d2b7 CONF:1 d2b4 CONF:3 18c5b CONF:1 0 CONF:0 0 CONF:0 0 CONF:0 BB SIZE:1
TAG:29f FORMAT:2 ENTANGLED_ADDRESSES:edba700 CONF:0 edc817f CONF:0 0 CONF:0 0 CONF:0 0 CONF:0 0 CONF:0 BB SIZE:1
TAG:ac FORMAT:3 ENTANGLED_ADDRESSES:f7fe CONF:2 f800 CONF:3 f802 CONF:2 0 CONF:0 0 CONF:0 0 CONF:0 BB SIZE:2
TAG:0 FORMAT:1 ENTANGLED_ADDRESSES:0 CONF:0 0 CONF:0 0 CONF:0 0 CONF:0 0 CONF:0 0 CONF:0 BB SIZE:0
TAG:0 FORMAT:1 ENTANGLED_ADDRESSES:0 CONF:0 0 CONF:0 0 CONF:0 0 CONF:0 0 CONF:0 0 CONF:0 BB SIZE:0
TAG:0 FORMAT:1 ENTANGLED_ADDRESSES:0 CONF:0 0 CONF:0 0 CONF:0 0 CONF:0 0 CONF:0 0 CONF:0 BB SIZE:0
TAG:0 FORMAT:1 ENTANGLED_ADDRESSES:0 CONF:0 0 CONF:0 0 CONF:0 0 CONF:0 0 CONF:0 0 CONF:0 BB SIZE:0
TAG:0 FORMAT:1 ENTANGLED_ADDRESSES:0 CONF:0 0 CONF:0 0 CONF:0 0 CONF:0 0 CONF:0 0 CONF:0 BB SIZE:0
TAG:0 FORMAT:1 ENTANGLED_ADDRESSES:0 CONF:0 0 CONF:0 0 CONF:0 0 CONF:0 0 CONF:0 0 CONF:0 BB SIZE:0
TAG:0 FORMAT:1 ENTANGLED_ADDRESSES:0 CONF:0 0 CONF:0 0 CONF:0 0 CONF:0 0 CONF:0 0 CONF:0 BB SIZE:0
TAG:0 FORMAT:1 ENTANGLED_ADDRESSES:0 CONF:0 0 CONF:0 0 CONF:0 0 CONF:0 0 CONF:0 0 CONF:0 BB SIZE:0
TAG:0 FORMAT:1 ENTANGLED_ADDRESSES:0 CONF:0 0 CONF:0 0 CONF:0 0 CONF:0 0 CONF:0 0 CONF:0 BB SIZE:0
TAG:0 FORMAT:1 ENTANGLED_ADDRESSES:0 CONF:0 0 CONF:0 0 CONF:0 0 CONF:0 0 CONF:0 0 CONF:0 BB SIZE:0
TAG:0 FORMAT:1 ENTANGLED_ADDRESSES:0 CONF:0 0 CONF:0 0 CONF:0 0 CONF:0 0 CONF:0 0 CONF:0 BB SIZE:0
SET:3
TAG:f2 FORMAT:3 ENTANGLED_ADDRESSES:d102 CONF:2 0 CONF:0 0 CONF:0 0 CONF:0 0 CONF:0 0 CONF:0 BB SIZE:3
TAG:b1 FORMAT:5 ENTANGLED_ADDRESSES:3f0 CONF:0 0 CONF:0 0 CONF:0 0 CONF:0 0 CONF:0 0 CONF:0 BB SIZE:0
TAG:9a FORMAT:3 ENTANGLED_ADDRESSES:276ff CONF:3 212c CONF:2 214a CONF:3 0 CONF:0 0 CONF:0 0 CONF:0 BB SIZE:0
TAG:0 FORMAT:1 ENTANGLED_ADDRESSES:0 CONF:0 0 CONF:0 0 CONF:0 0 CONF:0 0 CONF:0 0 CONF:0 BB SIZE:0
TAG:0 FORMAT:1 ENTANGLED_ADDRESSES:0 CONF:0 0 CONF:0 0 CONF:0 0 CONF:0 0 CONF:0 0 CONF:0 BB SIZE:0
TAG:0 FORMAT:1 ENTANGLED_ADDRESSES:0 CONF:0 0 CONF:0 0 CONF:0 0 CONF:0 0 CONF:0 0 CONF:0 BB SIZE:0
TAG:0 FORMAT:1 ENTANGLED_ADDRESSES:0 CONF:0 0 CONF:0 0 CONF:0 0 CONF:0 0 CONF:0 0 CONF:0 BB SIZE:0
TAG:0 FORMAT:1 ENTANGLED_ADDRESSES:0 CONF:0 0 CONF:0 0 CONF:0 0 CONF:0 0 CONF:0 0 CONF:0 BB SIZE:0
TAG:0 FORMAT:1 ENTANGLED_ADDRESSES:0 CONF:0 0 CONF:0 0 CONF:0 0 CONF:0 0 CONF:0 0 CONF:0 BB SIZE:0
TAG:0 FORMAT:1 ENTANGLED_ADDRESSES:0 CONF:0 0 CONF:0 0 CONF:0 0 CONF:0 0 CONF:0 0 CONF:0 BB SIZE:0
TAG:0 FORMAT:1 ENTANGLED_ADDRESSES:0 CONF:0 0 CONF:0 0 CONF:0 0 CONF:0 0 CONF:0 0 CONF:0 BB SIZE:0
TAG:0 FORMAT:1 ENTANGLED_ADDRESSES:0 CONF:0 0 CONF:0 0 CONF:0 0 CONF:0 0 CONF:0 0 CONF:0 BB SIZE:0
TAG:0 FORMAT:1 ENTANGLED_ADDRESSES:0 CONF:0 0 CONF:0 0 CONF:0 0 CONF:0 0 CONF:0 0 CONF:0 BB SIZE:0
TAG:0 FORMAT:1 ENTANGLED_ADDRESSES:0 CONF:0 0 CONF:0 0 CONF:0 0 CONF:0 0 CONF:0 0 CONF:0 BB SIZE:0
TAG:0 FORMAT:1 ENTANGLED_ADDRESSES:0 CONF:0 0 CONF:0 0 CONF:0 0 CONF:0 0 CONF:0 0 CONF:0 BB SIZE:0
TAG:0 FORMAT:1 ENTANGLED_ADDRESSES:0 CONF:0 0 CONF:0 0 CONF:0 0 CONF:0 0 CONF:0 0 CONF:0 BB SIZE:0
SET:4
TAG:3d FORMAT:3 ENTANGLED_ADDRESSES:1400b CONF:3 c73c CONF:3 15004 CONF:3 0 CONF:0 0 CONF:0 0 CONF:0 BB SIZE:5
TAG:b1 FORMAT:3 ENTANGLED_ADDRESSES:7ed8 CONF:0 870a CONF:2 4837 CONF:3 0 CONF:0 0 CONF:0 0 CONF:0 BB SIZE:1
TAG:f7 FORMAT:3 ENTANGLED_ADDRESSES:4564 CONF:3 61f8 CONF:3 0 CONF:0 0 CONF:0 0 CONF:0 0 CONF:0 BB SIZE:1
TAG:1ee FORMAT:4 ENTANGLED_ADDRESSES:154d CONF:2 145b CONF:3 1540 CONF:3 129 CONF:2 0 CONF:0 0 CONF:0 BB SIZE:1
TAG:d FORMAT:1 ENTANGLED_ADDRESSES:0 CONF:0 0 CONF:0 0 CONF:0 0 CONF:0 0 CONF:0 0 CONF:0 BB SIZE:6
TAG:2b1 FORMAT:6 ENTANGLED_ADDRESSES:82 CONF:2 0 CONF:0 0 CONF:0 0 CONF:0 0 CONF:0 0 CONF:0 BB SIZE:0
TAG:0 FORMAT:1 ENTANGLED_ADDRESSES:0 CONF:0 0 CONF:0 0 CONF:0 0 CONF:0 0 CONF:0 0 CONF:0 BB SIZE:0
TAG:0 FORMAT:1 ENTANGLED_ADDRESSES:0 CONF:0 0 CONF:0 0 CONF:0 0 CONF:0 0 CONF:0 0 CONF:0 BB SIZE:0
TAG:0 FORMAT:1 ENTANGLED_ADDRESSES:0 CONF:0 0 CONF:0 0 CONF:0 0 CONF:0 0 CONF:0 0 CONF:0 BB SIZE:0
TAG:0 FORMAT:1 ENTANGLED_ADDRESSES:0 CONF:0 0 CONF:0 0 CONF:0 0 CONF:0 0 CONF:0 0 CONF:0 BB SIZE:0
TAG:0 FORMAT:1 ENTANGLED_ADDRESSES:0 CONF:0 0 CONF:0 0 CONF:0 0 CONF:0 0 CONF:0 0 CONF:0 BB SIZE:0
TAG:0 FORMAT:1 ENTANGLED_ADDRESSES:0 CONF:0 0 CONF:0 0 CONF:0 0 CONF:0 0 CONF:0 0 CONF:0 BB SIZE:0
TAG:0 FORMAT:1 ENTANGLED_ADDRESSES:0 CONF:0 0 CONF:0 0 CONF:0 0 CONF:0 0 CONF:0 0 CONF:0 BB SIZE:0
TAG:0 FORMAT:1 ENTANGLED_ADDRESSES:0 CONF:0 0 CONF:0 0 CONF:0 0 CONF:0 0 CONF:0 0 CONF:0 BB SIZE:0
TAG:0 FORMAT:1 ENTANGLED_ADDRESSES:0 CONF:0 0 CONF:0 0 CONF:0 0 CONF:0 0 CONF:0 0 CONF:0 BB SIZE:0
TAG:0 FORMAT:1 ENTANGLED_ADDRESSES:0 CONF:0 0 CONF:0 0 CONF:0 0 CONF:0 0 CONF:0 0 CONF:0 BB SIZE:0
SET:5
TAG:2a FORMAT:1 ENTANGLED_ADDRESSES:0 CONF:0 0 CONF:0 0 CONF:0 0 CONF:0 0 CONF:0 0 CONF:0 BB SIZE:d
TAG:ab FORMAT:5 ENTANGLED_ADDRESSES:3cb CONF:0 3bf CONF:0 0 CONF:0 0 CONF:0 0 CONF:0 0 CONF:0 BB SIZE:2
TAG:f1 FORMAT:1 ENTANGLED_ADDRESSES:0 CONF:0 0 CONF:0 0 CONF:0 0 CONF:0 0 CONF:0 0 CONF:0 BB SIZE:2
TAG:cb FORMAT:3 ENTANGLED_ADDRESSES:1690c CONF:3 16910 CONF:3 53fd CONF:3 0 CONF:0 0 CONF:0 0 CONF:0 BB SIZE:c
TAG:2c FORMAT:1 ENTANGLED_ADDRESSES:0 CONF:0 0 CONF:0 0 CONF:0 0 CONF:0 0 CONF:0 0 CONF:0 BB SIZE:1
TAG:b1 FORMAT:3 ENTANGLED_ADDRESSES:4837 CONF:3 7e6a CONF:3 77b2 CONF:3 0 CONF:0 0 CONF:0 0 CONF:0 BB SIZE:2
TAG:2bf FORMAT:2 ENTANGLED_ADDRESSES:edcb5cc CONF:3 ecc0f93 CONF:3 b5cc CONF:0 0 CONF:0 0 CONF:0 0 CONF:0 BB SIZE:1
TAG:2fa FORMAT:2 ENTANGLED_ADDRESSES:edce6b1 CONF:3 edbdf18 CONF:3 0 CONF:0 0 CONF:0 0 CONF:0 0 CONF:0 BB SIZE:1
TAG:bf FORMAT:3 ENTANGLED_ADDRESSES:169 CONF:0 6a83 CONF:0 6c7 CONF:0 0 CONF:0 0 CONF:0 0 CONF:0 BB SIZE:1
TAG:1ef FORMAT:4 ENTANGLED_ADDRESSES:19a4 CONF:3 b3d CONF:2 19f0 CONF:3 19f6 CONF:3 0 CONF:0 0 CONF:0 BB SIZE:0
TAG:29f FORMAT:2 ENTANGLED_ADDRESSES:edb84af CONF:2 0 CONF:0 0 CONF:0 0 CONF:0 0 CONF:0 0 CONF:0 BB SIZE:1
TAG:0 FORMAT:1 ENTANGLED_ADDRESSES:0 CONF:0 0 CONF:0 0 CONF:0 0 CONF:0 0 CONF:0 0 CONF:0 BB SIZE:0
TAG:0 FORMAT:1 ENTANGLED_ADDRESSES:0 CONF:0 0 CONF:0 0 CONF:0 0 CONF:0 0 CONF:0 0 CONF:0 BB SIZE:0
TAG:0 FORMAT:1 ENTANGLED_ADDRESSES:0 CONF:0 0 CONF:0 0 CONF:0 0 CONF:0 0 CONF:0 0 CONF:0 BB SIZE:0
TAG:0 FORMAT:1 ENTANGLED_ADDRESSES:0 CONF:0 0 CONF:0 0 CONF:0 0 CONF:0 0 CONF:0 0 CONF:0 BB SIZE:0
TAG:0 FORMAT:1 ENTANGLED_ADDRESSES:0 CONF:0 0 CONF:0 0 CONF:0 0 CONF:0 0 CONF:0 0 CONF:0 BB SIZE:0
SET:6
TAG:bd FORMAT:3 ENTANGLED_ADDRESSES:f0c CONF:3 edf CONF:3 cb59 CONF:3 0 CONF:0 0 CONF:0 0 CONF:0 BB SIZE:5
TAG:e FORMAT:3 ENTANGLED_ADDRESSES:c211 CONF:3 13b1f CONF:3 ac83 CONF:3 0 CONF:0 0 CONF:0 0 CONF:0 BB SIZE:5
TAG:38 FORMAT:3 ENTANGLED_ADDRESSES:6b2f CONF:3 d53e CONF:3 6b24 CONF:2 0 CONF:0 0 CONF:0 0 CONF:0 BB SIZE:a
TAG:9b FORMAT:3 ENTANGLED_ADDRESSES:29cd CONF:3 12876 CONF:3 29db CONF:3 0 CONF:0 0 CONF:0 0 CONF:0 BB SIZE:1
TAG:0 FORMAT:1 ENTANGLED_ADDRESSES:0 CONF:0 0 CONF:0 0 CONF:0 0 CONF:0 0 CONF:0 0 CONF:0 BB SIZE:0
TAG:0 FORMAT:1 ENTANGLED_ADDRESSES:0 CONF:0 0 CONF:0 0 CONF:0 0 CONF:0 0 CONF:0 0 CONF:0 BB SIZE:0
TAG:0 FORMAT:1 ENTANGLED_ADDRESSES:0 CONF:0 0 CONF:0 0 CONF:0 0 CONF:0 0 CONF:0 0 CONF:0 BB SIZE:0
TAG:0 FORMAT:1 ENTANGLED_ADDRESSES:0 CONF:0 0 CONF:0 0 CONF:0 0 CONF:0 0 CONF:0 0 CONF:0 BB SIZE:0
TAG:0 FORMAT:1 ENTANGLED_ADDRESSES:0 CONF:0 0 CONF:0 0 CONF:0 0 CONF:0 0 CONF:0 0 CONF:0 BB SIZE:0
TAG:0 FORMAT:1 ENTANGLED_ADDRESSES:0 CONF:0 0 CONF:0 0 CONF:0 0 CONF:0 0 CONF:0 0 CONF:0 BB SIZE:0
TAG:0 FORMAT:1 ENTANGLED_ADDRESSES:0 CONF:0 0 CONF:0 0 CONF:0 0 CONF:0 0 CONF:0 0 CONF:0 BB SIZE:0
TAG:0 FORMAT:1 ENTANGLED_ADDRESSES:0 CONF:0 0 CONF:0 0 CONF:0 0 CONF:0 0 CONF:0 0 CONF:0 BB SIZE:0
TAG:0 FORMAT:1 ENTANGLED_ADDRESSES:0 CONF:0 0 CONF:0 0 CONF:0 0 CONF:0 0 CONF:0 0 CONF:0 BB SIZE:0
TAG:0 FORMAT:1 ENTANGLED_ADDRESSES:0 CONF:0 0 CONF:0 0 CONF:0 0 CONF:0 0 CONF:0 0 CONF:0 BB SIZE:0
TAG:0 FORMAT:1 ENTANGLED_ADDRESSES:0 CONF:0 0 CONF:0 0 CONF:0 0 CONF:0 0 CONF:0 0 CONF:0 BB SIZE:0
TAG:0 FORMAT:1 ENTANGLED_ADDRESSES:0 CONF:0 0 CONF:0 0 CONF:0 0 CONF:0 0 CONF:0 0 CONF:0 BB SIZE:0
SET:7
TAG:da FORMAT:2 ENTANGLED_ADDRESSES:edff40c CONF:3 edf7755 CONF:3 0 CONF:0 0 CONF:0 0 CONF:0 0 CONF:0 BB SIZE:b
TAG:f1 FORMAT:1 ENTANGLED_ADDRESSES:0 CONF:0 0 CONF:0 0 CONF:0 0 CONF:0 0 CONF:0 0 CONF:0 BB SIZE:6
TAG:2bf FORMAT:2 ENTANGLED_ADDRESSES:edce105 CONF:2 ecce92c CONF:3 e10a CONF:0 0 CONF:0 0 CONF:0 0 CONF:0 BB SIZE:1
TAG:9b FORMAT:3 ENTANGLED_ADDRESSES:da29 CONF:3 1700 CONF:3 0 CONF:0 0 CONF:0 0 CONF:0 0 CONF:0 BB SIZE:2
TAG:cd FORMAT:3 ENTANGLED_ADDRESSES:95c9 CONF:2 3b49 CONF:2 c076 CONF:3 0 CONF:0 0 CONF:0 0 CONF:0 BB SIZE:8
TAG:2fa FORMAT:3 ENTANGLED_ADDRESSES:3c789 CONF:3 1ad6 CONF:2 114c CONF:3 0 CONF:0 0 CONF:0 0 CONF:0 BB SIZE:2
TAG:1ef FORMAT:4 ENTANGLED_ADDRESSES:113c CONF:3 1151 CONF:3 1145 CONF:3 1a25 CONF:3 0 CONF:0 0 CONF:0 BB SIZE:1
TAG:2b1 FORMAT:2 ENTANGLED_ADDRESSES:edbd3d1 CONF:3 0 CONF:0 0 CONF:0 0 CONF:0 0 CONF:0 0 CONF:0 BB SIZE:1
TAG:0 FORMAT:1 ENTANGLED_ADDRESSES:0 CONF:0 0 CONF:0 0 CONF:0 0 CONF:0 0 CONF:0 0 CONF:0 BB SIZE:0
TAG:0 FORMAT:1 ENTANGLED_ADDRESSES:0 CONF:0 0 CONF:0 0 CONF:0 0 CONF:0 0 CONF:0 0 CONF:0 BB SIZE:0
TAG:0 FORMAT:1 ENTANGLED_ADDRESSES:0 CONF:0 0 CONF:0 0 CONF:0 0 CONF:0 0 CONF:0 0 CONF:0 BB SIZE:0
TAG:0 FORMAT:1 ENTANGLED_ADDRESSES:0 CONF:0 0 CONF:0 0 CONF:0 0 CONF:0 0 CONF:0 0 CONF:0 BB SIZE:0
TAG:0 FORMAT:1 ENTANGLED_ADDRESSES:0 CONF:0 0 CONF:0 0 CONF:0 0 CONF:0 0 CONF:0 0 CONF:0 BB SIZE:0
TAG:0 FORMAT:1 ENTANGLED_ADDRESSES:0 CONF:0 0 CONF:0 0 CONF:0 0 CONF:0 0 CONF:0 0 CONF:0 BB SIZE:0
TAG:0 FORMAT:1 ENTANGLED_ADDRESSES:0 CONF:0 0 CONF:0 0 CONF:0 0 CONF:0 0 CONF:0 0 CONF:0 BB SIZE:0
TAG:0 FORMAT:1 ENTANGLED_ADDRESSES:0 CONF:0 0 CONF:0 0 CONF:0 0 CONF:0 0 CONF:0 0 CONF:0 BB SIZE:0
SET:8
TAG:9f FORMAT:3 ENTANGLED_ADDRESSES:6f8d CONF:3 6f88 CONF:3 6f85 CONF:3 0 CONF:0 0 CONF:0 0 CONF:0 BB SIZE:1
TAG:ab FORMAT:3 ENTANGLED_ADDRESSES:11fda CONF:0 0 CONF:0 0 CONF:0 0 CONF:0 0 CONF:0 0 CONF:0 BB SIZE:1
TAG:2c FORMAT:3 ENTANGLED_ADDRESSES:53fd CONF:2 0 CONF:0 0 CONF:0 0 CONF:0 0 CONF:0 0 CONF:0 BB SIZE:1
TAG:e1 FORMAT:3 ENTANGLED_ADDRESSES:1489 CONF:1 767e CONF:3 0 CONF:0 0 CONF:0 0 CONF:0 0 CONF:0 BB SIZE:1
TAG:2fa FORMAT:2 ENTANGLED_ADDRESSES:edbc916 CONF:3 edbe538 CONF:0 0 CONF:0 0 CONF:0 0 CONF:0 0 CONF:0 BB SIZE:3
TAG:1ef FORMAT:4 ENTANGLED_ADDRESSES:1140 CONF:3 1974 CONF:1 177c CONF:2 19a8 CONF:0 1a48 CONF:3 0 CONF:0 BB SIZE:2
TAG:29f FORMAT:3 ENTANGLED_ADDRESSES:e1c5 CONF:2 a237 CONF:3 0 CONF:0 0 CONF:0 0 CONF:0 0 CONF:0 BB SIZE:0
TAG:b1 FORMAT:4 ENTANGLED_ADDRESSES:1831 CONF:3 1858 CONF:2 1fea CONF:0 1fee CONF:0 0 CONF:0 0 CONF:0 BB SIZE:0
TAG:2b1 FORMAT:1 ENTANGLED_ADDRESSES:0 CONF:0 0 CONF:0 0 CONF:0 0 CONF:0 0 CONF:0 0 CONF:0 BB SIZE:2
TAG:2a2 FORMAT:1 ENTANGLED_ADDRESSES:0 CONF:0 0 CONF:0 0 CONF:0 0 CONF:0 0 CONF:0 0 CONF:0 BB SIZE:2
TAG:0 FORMAT:1 ENTANGLED_ADDRESSES:0 CONF:0 0 CONF:0 0 CONF:0 0 CONF:0 0 CONF:0 0 CONF:0 BB SIZE:0
TAG:0 FORMAT:1 ENTANGLED_ADDRESSES:0 CONF:0 0 CONF:0 0 CONF:0 0 CONF:0 0 CONF:0 0 CONF:0 BB SIZE:0
TAG:0 FORMAT:1 ENTANGLED_ADDRESSES:0 CONF:0 0 CONF:0 0 CONF:0 0 CONF:0 0 CONF:0 0 CONF:0 BB SIZE:0
TAG:0 FORMAT:1 ENTANGLED_ADDRESSES:0 CONF:0 0 CONF:0 0 CONF:0 0 CONF:0 0 CONF:0 0 CONF:0 BB SIZE:0
TAG:0 FORMAT:1 ENTANGLED_ADDRESSES:0 CONF:0 0 CONF:0 0 CONF:0 0 CONF:0 0 CONF:0 0 CONF:0 BB SIZE:0
TAG:0 FORMAT:1 ENTANGLED_ADDRESSES:0 CONF:0 0 CONF:0 0 CONF:0 0 CONF:0 0 CONF:0 0 CONF:0 BB SIZE:0
SET:9
TAG:f1 FORMAT:3 ENTANGLED_ADDRESSES:4623 CONF:2 4627 CONF:2 ecb2 CONF:3 0 CONF:0 0 CONF:0 0 CONF:0 BB SIZE:3
TAG:1ef FORMAT:5 ENTANGLED_ADDRESSES:16e CONF:2 196e CONF:0 1971 CONF:0 1974 CONF:0 0 CONF:0 0 CONF:0 BB SIZE:0
TAG:2bf FORMAT:1 ENTANGLED_ADDRESSES:0 CONF:0 0 CONF:0 0 CONF:0 0 CONF:0 0 CONF:0 0 CONF:0 BB SIZE:3
TAG:29f FORMAT:1 ENTANGLED_ADDRESSES:0 CONF:0 0 CONF:0 0 CONF:0 0 CONF:0 0 CONF:0 0 CONF:0 BB SIZE:2
TAG:0 FORMAT:1 ENTANGLED_ADDRESSES:0 CONF:0 0 CONF:0 0 CONF:0 0 CONF:0 0 CONF:0 0 CONF:0 BB SIZE:0
TAG:0 FORMAT:1 ENTANGLED_ADDRESSES:0 CONF:0 0 CONF:0 0 CONF:0 0 CONF:0 0 CONF:0 0 CONF:0 BB SIZE:0
TAG:0 FORMAT:1 ENTANGLED_ADDRESSES:0 CONF:0 0 CONF:0 0 CONF:0 0 CONF:0 0 CONF:0 0 CONF:0 BB SIZE:0
TAG:0 FORMAT:1 ENTANGLED_ADDRESSES:0 CONF:0 0 CONF:0 0 CONF:0 0 CONF:0 0 CONF:0 0 CONF:0 BB SIZE:0
TAG:0 FORMAT:1 ENTANGLED_ADDRESSES:0 CONF:0 0 CONF:0 0 CONF:0 0 CONF:0 0 CONF:0 0 CONF:0 BB SIZE:0
TAG:0 FORMAT:1 ENTANGLED_ADDRESSES:0 CONF:0 0 CONF:0 0 CONF:0 0 CONF:0 0 CONF:0 0 CONF:0 BB SIZE:0
TAG:0 FORMAT:1 ENTANGLED_ADDRESSES:0 CONF:0 0 CONF:0 0 CONF:0 0 CONF:0 0 CONF:0 0 CONF:0 BB SIZE:0
TAG:0 FORMAT:1 ENTANGLED_ADDRESSES:0 CONF:0 0 CONF:0 0 CONF:0 0 CONF:0 0 CONF:0 0 CONF:0 BB SIZE:0
TAG:0 FORMAT:1 ENTANGLED_ADDRESSES:0 CONF:0 0 CONF:0 0 CONF:0 0 CONF:0 0 CONF:0 0 CONF:0 BB SIZE:0
TAG:0 FORMAT:1 ENTANGLED_ADDRESSES:0 CONF:0 0 CONF:0 0 CONF:0 0 CONF:0 0 CONF:0 0 CONF:0 BB SIZE:0
TAG:0 FORMAT:1 ENTANGLED_ADDRESSES:0 CONF:0 0 CONF:0 0 CONF:0 0 CONF:0 0 CONF:0 0 CONF:0 BB SIZE:0
TAG:0 FORMAT:1 ENTANGLED_ADDRESSES:0 CONF:0 0 CONF:0 0 CONF:0 0 CONF:0 0 CONF:0 0 CONF:0 BB SIZE:0
SET:10
TAG:de FORMAT:4 ENTANGLED_ADDRESSES:1786 CONF:2 109c CONF:2 109d CONF:3 0 CONF:0 0 CONF:0 0 CONF:0 BB SIZE:3
TAG:3d FORMAT:3 ENTANGLED_ADDRESSES:c73c CONF:2 c74e CONF:1 15004 CONF:2 0 CONF:0 0 CONF:0 0 CONF:0 BB SIZE:1
TAG:d3 FORMAT:3 ENTANGLED_ADDRESSES:f1b CONF:3 fe65 CONF:2 eaf CONF:2 0 CONF:0 0 CONF:0 0 CONF:0 BB SIZE:2
TAG:e0 FORMAT:3 ENTANGLED_ADDRESSES:4338 CONF:3 228d0 CONF:3 228d1 CONF:3 0 CONF:0 0 CONF:0 0 CONF:0 BB SIZE:2
TAG:aa FORMAT:3 ENTANGLED_ADDRESSES:143 CONF:3 5b4 CONF:2 5ba CONF:2 0 CONF:0 0 CONF:0 0 CONF:0 BB SIZE:2
TAG:2b1 FORMAT:3 ENTANGLED_ADDRESSES:da5e CONF:2 da58 CONF:3 0 CONF:0 0 CONF:0 0 CONF:0 0 CONF:0 BB SIZE:4
TAG:2d2 FORMAT:5 ENTANGLED_ADDRESSES:42 CONF:2 45 CONF:2 44 CONF:2 0 CONF:0 0 CONF:0 0 CONF:0 BB SIZE:2
TAG:1ef FORMAT:2 ENTANGLED_ADDRESSES:edcb72b CONF:3 edb5ca9 CONF:3 0 CONF:0 0 CONF:0 0 CONF:0 0 CONF:0 BB SIZE:1
TAG:0 FORMAT:1 ENTANGLED_ADDRESSES:0 CONF:0 0 CONF:0 0 CONF:0 0 CONF:0 0 CONF:0 0 CONF:0 BB SIZE:0
TAG:0 FORMAT:1 ENTANGLED_ADDRESSES:0 CONF:0 0 CONF:0 0 CONF:0 0 CONF:0 0 CONF:0 0 CONF:0 BB SIZE:0
TAG:0 FORMAT:1 ENTANGLED_ADDRESSES:0 CONF:0 0 CONF:0 0 CONF:0 0 CONF:0 0 CONF:0 0 CONF:0 BB SIZE:0
TAG:0 FORMAT:1 ENTANGLED_ADDRESSES:0 CONF:0 0 CONF:0 0 CONF:0 0 CONF:0 0 CONF:0 0 CONF:0 BB SIZE:0
TAG:0 FORMAT:1 ENTANGLED_ADDRESSES:0 CONF:0 0 CONF:0 0 CONF:0 0 CONF:0 0 CONF:0 0 CONF:0 BB SIZE:0
TAG:0 FORMAT:1 ENTANGLED_ADDRESSES:0 CONF:0 0 CONF:0 0 CONF:0 0 CONF:0 0 CONF:0 0 CONF:0 BB SIZE:0
TAG:0 FORMAT:1 ENTANGLED_ADDRESSES:0 CONF:0 0 CONF:0 0 CONF:0 0 CONF:0 0 CONF:0 0 CONF:0 BB SIZE:0
TAG:0 FORMAT:1 ENTANGLED_ADDRESSES:0 CONF:0 0 CONF:0 0 CONF:0 0 CONF:0 0 CONF:0 0 CONF:0 BB SIZE:0
SET:11
TAG:bc FORMAT:1 ENTANGLED_ADDRESSES:0 CONF:0 0 CONF:0 0 CONF:0 0 CONF:0 0 CONF:0 0 CONF:0 BB SIZE:2
TAG:e0 FORMAT:3 ENTANGLED_ADDRESSES:41ee CONF:2 277e1 CONF:3 228c7 CONF:3 0 CONF:0 0 CONF:0 0 CONF:0 BB SIZE:5
TAG:98 FORMAT:1 ENTANGLED_ADDRESSES:0 CONF:0 0 CONF:0 0 CONF:0 0 CONF:0 0 CONF:0 0 CONF:0 BB SIZE:2
TAG:a3 FORMAT:3 ENTANGLED_ADDRESSES:1d8b CONF:2 f23c CONF:3 0 CONF:0 0 CONF:0 0 CONF:0 0 CONF:0 BB SIZE:1
TAG:1ef FORMAT:2 ENTANGLED_ADDRESSES:edcaeb8 CONF:2 edbfe5b CONF:3 0 CONF:0 0 CONF:0 0 CONF:0 0 CONF:0 BB SIZE:2
TAG:2bf FORMAT:3 ENTANGLED_ADDRESSES:b639 CONF:1 e107 CONF:2 e106 CONF:2 0 CONF:0 0 CONF:0 0 CONF:0 BB SIZE:1
TAG:2a2 FORMAT:1 ENTANGLED_ADDRESSES:0 CONF:0 0 CONF:0 0 CONF:0 0 CONF:0 0 CONF:0 0 CONF:0 BB SIZE:1
TAG:0 FORMAT:1 ENTANGLED_ADDRESSES:0 CONF:0 0 CONF:0 0 CONF:0 0 CONF:0 0 CONF:0 0 CONF:0 BB SIZE:0
TAG:0 FORMAT:1 ENTANGLED_ADDRESSES:0 CONF:0 0 CONF:0 0 CONF:0 0 CONF:0 0 CONF:0 0 CONF:0 BB SIZE:0
TAG:0 FORMAT:1 ENTANGLED_ADDRESSES:0 CONF:0 0 CONF:0 0 CONF:0 0 CONF:0 0 CONF:0 0 CONF:0 BB SIZE:0
TAG:0 FORMAT:1 ENTANGLED_ADDRESSES:0 CONF:0 0 CONF:0 0 CONF:0 0 CONF:0 0 CONF:0 0 CONF:0 BB SIZE:0
TAG:0 FORMAT:1 ENTANGLED_ADDRESSES:0 CONF:0 0 CONF:0 0 CONF:0 0 CONF:0 0 CONF:0 0 CONF:0 BB SIZE:0
TAG:0 FORMAT:1 ENTANGLED_ADDRESSES:0 CONF:0 0 CONF:0 0 CONF:0 0 CONF:0 0 CONF:0 0 CONF:0 BB SIZE:0
TAG:0 FORMAT:1 ENTANGLED_ADDRESSES:0 CONF:0 0 CONF:0 0 CONF:0 0 CONF:0 0 CONF:0 0 CONF:0 BB SIZE:0
TAG:0 FORMAT:1 ENTANGLED_ADDRESSES:0 CONF:0 0 CONF:0 0 CONF:0 0 CONF:0 0 CONF:0 0 CONF:0 BB SIZE:0
TAG:0 FORMAT:1 ENTANGLED_ADDRESSES:0 CONF:0 0 CONF:0 0 CONF:0 0 CONF:0 0 CONF:0 0 CONF:0 BB SIZE:0
SET:12
TAG:ff FORMAT:2 ENTANGLED_ADDRESSES:e8e49d9 CONF:3 eccd7da CONF:3 0 CONF:0 0 CONF:0 0 CONF:0 0 CONF:0 BB SIZE:d
TAG:1ee FORMAT:3 ENTANGLED_ADDRESSES:77b9 CONF:2 23e80 CONF:3 0 CONF:0 0 CONF:0 0 CONF:0 0 CONF:0 BB SIZE:1
TAG:d3 FORMAT:3 ENTANGLED_ADDRESSES:eaf CONF:0 f1b CONF:1 fe62 CONF:3 0 CONF:0 0 CONF:0 0 CONF:0 BB SIZE:1
TAG:29f FORMAT:2 ENTANGLED_ADDRESSES:edba6c5 CONF:3 edca201 CONF:2 0 CONF:0 0 CONF:0 0 CONF:0 0 CONF:0 BB SIZE:3
TAG:d4 FORMAT:4 ENTANGLED_ADDRESSES:d9b CONF:3 0 CONF:0 0 CONF:0 0 CONF:0 0 CONF:0 0 CONF:0 BB SIZE:0
TAG:b2 FORMAT:5 ENTANGLED_ADDRESSES:d1 CONF:1 dc CONF:3 0 CONF:0 0 CONF:0 0 CONF:0 0 CONF:0 BB SIZE:0
TAG:b6 FORMAT:2 ENTANGLED_ADDRESSES:edcb61f CONF:0 0 CONF:0 0 CONF:0 0 CONF:0 0 CONF:0 0 CONF:0 BB SIZE:0
TAG:0 FORMAT:1 ENTANGLED_ADDRESSES:0 CONF:0 0 CONF:0 0 CONF:0 0 CONF:0 0 CONF:0 0 CONF:0 BB SIZE:0
TAG:0 FORMAT:1 ENTANGLED_ADDRESSES:0 CONF:0 0 CONF:0 0 CONF:0 0 CONF:0 0 CONF:0 0 CONF:0 BB SIZE:0
TAG:0 FORMAT:1 ENTANGLED_ADDRESSES:0 CONF:0 0 CONF:0 0 CONF:0 0 CONF:0 0 CONF:0 0 CONF:0 BB SIZE:0
TAG:0 FORMAT:1 ENTANGLED_ADDRESSES:0 CONF:0 0 CONF:0 0 CONF:0 0 CONF:0 0 CONF:0 0 CONF:0 BB SIZE:0
TAG:0 FORMAT:1 ENTANGLED_ADDRESSES:0 CONF:0 0 CONF:0 0 CONF:0 0 CONF:0 0 CONF:0 0 CONF:0 BB SIZE:0
TAG:0 FORMAT:1 ENTANGLED_ADDRESSES:0 CONF:0 0 CONF:0 0 CONF:0 0 CONF:0 0 CONF:0 0 CONF:0 BB SIZE:0
TAG:0 FORMAT:1 ENTANGLED_ADDRESSES:0 CONF:0 0 CONF:0 0 CONF:0 0 CONF:0 0 CONF:0 0 CONF:0 BB SIZE:0
TAG:0 FORMAT:1 ENTANGLED_ADDRESSES:0 CONF:0 0 CONF:0 0 CONF:0 0 CONF:0 0 CONF:0 0 CONF:0 BB SIZE:0
TAG:0 FORMAT:1 ENTANGLED_ADDRESSES:0 CONF:0 0 CONF:0 0 CONF:0 0 CONF:0 0 CONF:0 0 CONF:0 BB SIZE:0
SET:13
TAG:d3 FORMAT:3 ENTANGLED_ADDRESSES:eb3 CONF:0 eaf CONF:2 fe62 CONF:0 0 CONF:0 0 CONF:0 0 CONF:0 BB SIZE:1
TAG:2bf FORMAT:1 ENTANGLED_ADDRESSES:0 CONF:0 0 CONF:0 0 CONF:0 0 CONF:0 0 CONF:0 0 CONF:0 BB SIZE:1
TAG:1f2 FORMAT:2 ENTANGLED_ADDRESSES:edcaf91 CONF:3 edcaf90 CONF:2 0 CONF:0 0 CONF:0 0 CONF:0 0 CONF:0 BB SIZE:1
TAG:ac FORMAT:3 ENTANGLED_ADDRESSES:2239 CONF:2 3726 CONF:3 371f CONF:2 0 CONF:0 0 CONF:0 0 CONF:0 BB SIZE:3
TAG:0 FORMAT:1 ENTANGLED_ADDRESSES:0 CONF:0 0 CONF:0 0 CONF:0 0 CONF:0 0 CONF:0 0 CONF:0 BB SIZE:0
TAG:0 FORMAT:1 ENTANGLED_ADDRESSES:0 CONF:0 0 CONF:0 0 CONF:0 0 CONF:0 0 CONF:0 0 CONF:0 BB SIZE:0
TAG:0 FORMAT:1 ENTANGLED_ADDRESSES:0 CONF:0 0 CONF:0 0 CONF:0 0 CONF:0 0 CONF:0 0 CONF:0 BB SIZE:0
TAG:0 FORMAT:1 ENTANGLED_ADDRESSES:0 CONF:0 0 CONF:0 0 CONF:0 0 CONF:0 0 CONF:0 0 CONF:0 BB SIZE:0
TAG:0 FORMAT:1 ENTANGLED_ADDRESSES:0 CONF:0 0 CONF:0 0 CONF:0 0 CONF:0 0 CONF:0 0 CONF:0 BB SIZE:0
TAG:0 FORMAT:1 ENTANGLED_ADDRESSES:0 CONF:0 0 CONF:0 0 CONF:0 0 CONF:0 0 CONF:0 0 CONF:0 BB SIZE:0
TAG:0 FORMAT:1 ENTANGLED_ADDRESSES:0 CONF:0 0 CONF:0 0 CONF:0 0 CONF:0 0 CONF:0 0 CONF:0 BB SIZE:0
TAG:0 FORMAT:1 ENTANGLED_ADDRESSES:0 CONF:0 0 CONF:0 0 CONF:0 0 CONF:0 0 CONF:0 0 CONF:0 BB SIZE:0
TAG:0 FORMAT:1 ENTANGLED_ADDRESSES:0 CONF:0 0 CONF:0 0 CONF:0 0 CONF:0 0 CONF:0 0 CONF:0 BB SIZE:0
TAG:0 FORMAT:1 ENTANGLED_ADDRESSES:0 CONF:0 0 CONF:0 0 CONF:0 0 CONF:0 0 CONF:0 0 CONF:0 BB SIZE:0
TAG:0 FORMAT:1 ENTANGLED_ADDRESSES:0 CONF:0 0 CONF:0 0 CONF:0 0 CONF:0 0 CONF:0 0 CONF:0 BB SIZE:0
TAG:0 FORMAT:1 ENTANGLED_ADDRESSES:0 CONF:0 0 CONF:0 0 CONF:0 0 CONF:0 0 CONF:0 0 CONF:0 BB SIZE:0
SET:14
TAG:3d FORMAT:3 ENTANGLED_ADDRESSES:1ba7 CONF:2 767e CONF:3 0 CONF:0 0 CONF:0 0 CONF:0 0 CONF:0 BB SIZE:1
TAG:ac FORMAT:3 ENTANGLED_ADDRESSES:4856 CONF:2 f7fe CONF:3 0 CONF:0 0 CONF:0 0 CONF:0 0 CONF:0 BB SIZE:2
TAG:9b FORMAT:3 ENTANGLED_ADDRESSES:ed4d CONF:3 1700 CONF:2 0 CONF:0 0 CONF:0 0 CONF:0 0 CONF:0 BB SIZE:0
TAG:0 FORMAT:1 ENTANGLED_ADDRESSES:0 CONF:0 0 CONF:0 0 CONF:0 0 CONF:0 0 CONF:0 0 CONF:0 BB SIZE:0
TAG:0 FORMAT:1 ENTANGLED_ADDRESSES:0 CONF:0 0 CONF:0 0 CONF:0 0 CONF:0 0 CONF:0 0 CONF:0 BB SIZE:0
TAG:0 FORMAT:1 ENTANGLED_ADDRESSES:0 CONF:0 0 CONF:0 0 CONF:0 0 CONF:0 0 CONF:0 0 CONF:0 BB SIZE:0
TAG:0 FORMAT:1 ENTANGLED_ADDRESSES:0 CONF:0 0 CONF:0 0 CONF:0 0 CONF:0 0 CONF:0 0 CONF:0 BB SIZE:0
TAG:0 FORMAT:1 ENTANGLED_ADDRESSES:0 CONF:0 0 CONF:0 0 CONF:0 0 CONF:0 0 CONF:0 0 CONF:0 BB SIZE:0
TAG:0 FORMAT:1 ENTANGLED_ADDRESSES:0 CONF:0 0 CONF:0 0 CONF:0 0 CONF:0 0 CONF:0 0 CONF:0 BB SIZE:0
TAG:0 FORMAT:1 ENTANGLED_ADDRESSES:0 CONF:0 0 CONF:0 0 CONF:0 0 CONF:0 0 CONF:0 0 CONF:0 BB SIZE:0
TAG:0 FORMAT:1 ENTANGLED_ADDRESSES:0 CONF:0 0 CONF:0 0 CONF:0 0 CONF:0 0 CONF:0 0 CONF:0 BB SIZE:0
TAG:0 FORMAT:1 ENTANGLED_ADDRESSES:0 CONF:0 0 CONF:0 0 CONF:0 0 CONF:0 0 CONF:0 0 CONF:0 BB SIZE:0
TAG:0 FORMAT:1 ENTANGLED_ADDRESSES:0 CONF:0 0 CONF:0 0 CONF:0 0 CONF:0 0 CONF:0 0 CONF:0 BB SIZE:0
TAG:0 FORMAT:1 ENTANGLED_ADDRESSES:0 CONF:0 0 CONF:0 0 CONF:0 0 CONF:0 0 CONF:0 0 CONF:0 BB SIZE:0
TAG:0 FORMAT:1 ENTANGLED_ADDRESSES:0 CONF:0 0 CONF:0 0 CONF:0 0 CONF:0 0 CONF:0 0 CONF:0 BB SIZE:0
TAG:0 FORMAT:1 ENTANGLED_ADDRESSES:0 CONF:0 0 CONF:0 0 CONF:0 0 CONF:0 0 CONF:0 0 CONF:0 BB SIZE:0
SET:15
TAG:c4 FORMAT:3 ENTANGLED_ADDRESSES:9668 CONF:3 e37c CONF:3 100ba CONF:2 0 CONF:0 0 CONF:0 0 CONF:0 BB SIZE:2
TAG:2bf FORMAT:3 ENTANGLED_ADDRESSES:e106 CONF:3 b639 CONF:0 e105 CONF:2 0 CONF:0 0 CONF:0 0 CONF:0 BB SIZE:4
TAG:0 FORMAT:6 ENTANGLED_ADDRESSES:2e CONF:1 3f CONF:2 3c CONF:3 0 CONF:0 0 CONF:0 0 CONF:0 BB SIZE:0
TAG:0 FORMAT:1 ENTANGLED_ADDRESSES:0 CONF:0 0 CONF:0 0 CONF:0 0 CONF:0 0 CONF:0 0 CONF:0 BB SIZE:0
TAG:0 FORMAT:1 ENTANGLED_ADDRESSES:0 CONF:0 0 CONF:0 0 CONF:0 0 CONF:0 0 CONF:0 0 CONF:0 BB SIZE:0
TAG:0 FORMAT:1 ENTANGLED_ADDRESSES:0 CONF:0 0 CONF:0 0 CONF:0 0 CONF:0 0 CONF:0 0 CONF:0 BB SIZE:0
TAG:0 FORMAT:1 ENTANGLED_ADDRESSES:0 CONF:0 0 CONF:0 0 CONF:0 0 CONF:0 0 CONF:0 0 CONF:0 BB SIZE:0
TAG:0 FORMAT:1 ENTANGLED_ADDRESSES:0 CONF:0 0 CONF:0 0 CONF:0 0 CONF:0 0 CONF:0 0 CONF:0 BB SIZE:0
TAG:0 FORMAT:1 ENTANGLED_ADDRESSES:0 CONF:0 0 CONF:0 0 CONF:0 0 CONF:0 0 CONF:0 0 CONF:0 BB SIZE:0
TAG:0 FORMAT:1 ENTANGLED_ADDRESSES:0 CONF:0 0 CONF:0 0 CONF:0 0 CONF:0 0 CONF:0 0 CONF:0 BB SIZE:0
TAG:0 FORMAT:1 ENTANGLED_ADDRESSES:0 CONF:0 0 CONF:0 0 CONF:0 0 CONF:0 0 CONF:0 0 CONF:0 BB SIZE:0
TAG:0 FORMAT:1 ENTANGLED_ADDRESSES:0 CONF:0 0 CONF:0 0 CONF:0 0 CONF:0 0 CONF:0 0 CONF:0 BB SIZE:0
TAG:0 FORMAT:1 ENTANGLED_ADDRESSES:0 CONF:0 0 CONF:0 0 CONF:0 0 CONF:0 0 CONF:0 0 CONF:0 BB SIZE:0
TAG:0 FORMAT:1 ENTANGLED_ADDRESSES:0 CONF:0 0 CONF:0 0 CONF:0 0 CONF:0 0 CONF:0 0 CONF:0 BB SIZE:0
TAG:0 FORMAT:1 ENTANGLED_ADDRESSES:0 CONF:0 0 CONF:0 0 CONF:0 0 CONF:0 0 CONF:0 0 CONF:0 BB SIZE:0
TAG:0 FORMAT:1 ENTANGLED_ADDRESSES:0 CONF:0 0 CONF:0 0 CONF:0 0 CONF:0 0 CONF:0 0 CONF:0 BB SIZE:0
SET:16
TAG:9a FORMAT:4 ENTANGLED_ADDRESSES:14a CONF:3 12e CONF:3 133 CONF:3 0 CONF:0 0 CONF:0 0 CONF:0 BB SIZE:2
TAG:d3 FORMAT:3 ENTANGLED_ADDRESSES:18cd CONF:3 761a CONF:3 0 CONF:0 0 CONF:0 0 CONF:0 0 CONF:0 BB SIZE:1
TAG:3d FORMAT:6 ENTANGLED_ADDRESSES:10 CONF:3 4482 CONF:0 14010 CONF:0 0 CONF:0 0 CONF:0 0 CONF:0 BB SIZE:2
TAG:b1 FORMAT:3 ENTANGLED_ADDRESSES:7ff1 CONF:3 8216 CONF:2 7ff0 CONF:2 0 CONF:0 0 CONF:0 0 CONF:0 BB SIZE:2
TAG:2bf FORMAT:3 ENTANGLED_ADDRESSES:b639 CONF:3 b641 CONF:3 377e CONF:3 0 CONF:0 0 CONF:0 0 CONF:0 BB SIZE:1
TAG:ac FORMAT:4 ENTANGLED_ADDRESSES:aa2 CONF:3 148a CONF:3 0 CONF:0 0 CONF:0 0 CONF:0 0 CONF:0 BB SIZE:1
TAG:c4 FORMAT:1 ENTANGLED_ADDRESSES:0 CONF:0 0 CONF:0 0 CONF:0 0 CONF:0 0 CONF:0 0 CONF:0 BB SIZE:1
TAG:0 FORMAT:1 ENTANGLED_ADDRESSES:0 CONF:0 0 CONF:0 0 CONF:0 0 CONF:0 0 CONF:0 0 CONF:0 BB SIZE:0
TAG:0 FORMAT:1 ENTANGLED_ADDRESSES:0 CONF:0 0 CONF:0 0 CONF:0 0 CONF:0 0 CONF:0 0 CONF:0 BB SIZE:0
TAG:0 FORMAT:1 ENTANGLED_ADDRESSES:0 CONF:0 0 CONF:0 0 CONF:0 0 CONF:0 0 CONF:0 0 CONF:0 BB SIZE:0
TAG:0 FORMAT:1 ENTANGLED_ADDRESSES:0 CONF:0 0 CONF:0 0 CONF:0 0 CONF:0 0 CONF:0 0 CONF:0 BB SIZE:0
TAG:0 FORMAT:1 ENTANGLED_ADDRESSES:0 CONF:0 0 CONF:0 0 CONF:0 0 CONF:0 0 CONF:0 0 CONF:0 BB SIZE:0
TAG:0 FORMAT:1 ENTANGLED_ADDRESSES:0 CONF:0 0 CONF:0 0 CONF:0 0 CONF:0 0 CONF:0 0 CONF:0 BB SIZE:0
TAG:0 FORMAT:1 ENTANGLED_ADDRESSES:0 CONF:0 0 CONF:0 0 CONF:0 0 CONF:0 0 CONF:0 0 CONF:0 BB SIZE:0
TAG:0 FORMAT:1 ENTANGLED_ADDRESSES:0 CONF:0 0 CONF:0 0 CONF:0 0 CONF:0 0 CONF:0 0 CONF:0 BB SIZE:0
TAG:0 FORMAT:1 ENTANGLED_ADDRESSES:0 CONF:0 0 CONF:0 0 CONF:0 0 CONF:0 0 CONF:0 0 CONF:0 BB SIZE:0
SET:17
TAG:ac FORMAT:3 ENTANGLED_ADDRESSES:4653 CONF:3 4676 CONF:0 7c9a CONF:3 0 CONF:0 0 CONF:0 0 CONF:0 BB SIZE:3
TAG:38 FORMAT:3 ENTANGLED_ADDRESSES:ac65 CONF:2 76fc CONF:2 76ff CONF:3 0 CONF:0 0 CONF:0 0 CONF:0 BB SIZE:6
TAG:f1 FORMAT:1 ENTANGLED_ADDRESSES:0 CONF:0 0 CONF:0 0 CONF:0 0 CONF:0 0 CONF:0 0 CONF:0 BB SIZE:d
TAG:a3 FORMAT:3 ENTANGLED_ADDRESSES:13d78 CONF:2 0 CONF:0 0 CONF:0 0 CONF:0 0 CONF:0 0 CONF:0 BB SIZE:1
TAG:9b FORMAT:3 ENTANGLED_ADDRESSES:12116 CONF:3 1f9e CONF:3 0 CONF:0 0 CONF:0 0 CONF:0 0 CONF:0 BB SIZE:8
TAG:2bf FORMAT:3 ENTANGLED_ADDRESSES:377e CONF:3 b604 CONF:3 377f CONF:3 0 CONF:0 0 CONF:0 0 CONF:0 BB SIZE:2
TAG:1ea FORMAT:4 ENTANGLED_ADDRESSES:618 CONF:3 61d CONF:3 1289 CONF:2 126b CONF:3 0 CONF:0 0 CONF:0 BB SIZE:8
TAG:99 FORMAT:1 ENTANGLED_ADDRESSES:0 CONF:0 0 CONF:0 0 CONF:0 0 CONF:0 0 CONF:0 0 CONF:0 BB SIZE:1
TAG:d FORMAT:6 ENTANGLED_ADDRESSES:c5 CONF:2 b9 CONF:3 be CONF:0 b8 CONF:3 0 CONF:0 0 CONF:0 BB SIZE:2
TAG:b2 FORMAT:5 ENTANGLED_ADDRESSES:29a CONF:1 2a3 CONF:3 0 CONF:0 0 CONF:0 0 CONF:0 0 CONF:0 BB SIZE:0
TAG:0 FORMAT:1 ENTANGLED_ADDRESSES:0 CONF:0 0 CONF:0 0 CONF:0 0 CONF:0 0 CONF:0 0 CONF:0 BB SIZE:0
TAG:0 FORMAT:1 ENTANGLED_ADDRESSES:0 CONF:0 0 CONF:0 0 CONF:0 0 CONF:0 0 CONF:0 0 CONF:0 BB SIZE:0
TAG:0 FORMAT:1 ENTANGLED_ADDRESSES:0 CONF:0 0 CONF:0 0 CONF:0 0 CONF:0 0 CONF:0 0 CONF:0 BB SIZE:0
TAG:0 FORMAT:1 ENTANGLED_ADDRESSES:0 CONF:0 0 CONF:0 0 CONF:0 0 CONF:0 0 CONF:0 0 CONF:0 BB SIZE:0
TAG:0 FORMAT:1 ENTANGLED_ADDRESSES:0 CONF:0 0 CONF:0 0 CONF:0 0 CONF:0 0 CONF:0 0 CONF:0 BB SIZE:0
TAG:0 FORMAT:1 ENTANGLED_ADDRESSES:0 CONF:0 0 CONF:0 0 CONF:0 0 CONF:0 0 CONF:0 0 CONF:0 BB SIZE:0
SET:18
TAG:ac FORMAT:3 ENTANGLED_ADDRESSES:88b5 CONF:3 8870 CONF:3 8877 CONF:3 0 CONF:0 0 CONF:0 0 CONF:0 BB SIZE:2
TAG:2a FORMAT:3 ENTANGLED_ADDRESSES:7c6b CONF:3 7c82 CONF:3 7c80 CONF:3 0 CONF:0 0 CONF:0 0 CONF:0 BB SIZE:3
TAG:fd FORMAT:6 ENTANGLED_ADDRESSES:6d CONF:3 78 CONF:2 7a CONF:3 71 CONF:3 0 CONF:0 0 CONF:0 BB SIZE:a
TAG:15 FORMAT:3 ENTANGLED_ADDRESSES:dc2f CONF:3 dc27 CONF:2 dc61 CONF:3 0 CONF:0 0 CONF:0 0 CONF:0 BB SIZE:1
TAG:ad FORMAT:3 ENTANGLED_ADDRESSES:46f5 CONF:1 f94b CONF:2 4b39 CONF:1 0 CONF:0 0 CONF:0 0 CONF:0 BB SIZE:1
TAG:9b FORMAT:3 ENTANGLED_ADDRESSES:c131 CONF:3 ca64 CONF:3 61f8 CONF:3 0 CONF:0 0 CONF:0 0 CONF:0 BB SIZE:1
TAG:f2 FORMAT:1 ENTANGLED_ADDRESSES:0 CONF:0 0 CONF:0 0 CONF:0 0 CONF:0 0 CONF:0 0 CONF:0 BB SIZE:2
TAG:d FORMAT:6 ENTANGLED_ADDRESSES:c5 CONF:3 ca CONF:0 0 CONF:0 0 CONF:0 0 CONF:0 0 CONF:0 BB SIZE:3
TAG:1e8 FORMAT:4 ENTANGLED_ADDRESSES:1151 CONF:2 1a45 CONF:1 1a48 CONF:2 1145 CONF:2 0 CONF:0 0 CONF:0 BB SIZE:0
TAG:99 FORMAT:3 ENTANGLED_ADDRESSES:3aae CONF:3 4ab5 CONF:3 3c14 CONF:3 0 CONF:0 0 CONF:0 0 CONF:0 BB SIZE:2
TAG:1ef FORMAT:2 ENTANGLED_ADDRESSES:edcb715 CONF:3 edcb72b CONF:1 0 CONF:0 0 CONF:0 0 CONF:0 0 CONF:0 BB SIZE:0
TAG:0 FORMAT:1 ENTANGLED_ADDRESSES:0 CONF:0 0 CONF:0 0 CONF:0 0 CONF:0 0 CONF:0 0 CONF:0 BB SIZE:0
TAG:0 FORMAT:1 ENTANGLED_ADDRESSES:0 CONF:0 0 CONF:0 0 CONF:0 0 CONF:0 0 CONF:0 0 CONF:0 BB SIZE:0
TAG:0 FORMAT:1 ENTANGLED_ADDRESSES:0 CONF:0 0 CONF:0 0 CONF:0 0 CONF:0 0 CONF:0 0 CONF:0 BB SIZE:0
TAG:0 FORMAT:1 ENTANGLED_ADDRESSES:0 CONF:0 0 CONF:0 0 CONF:0 0 CONF:0 0 CONF:0 0 CONF:0 BB SIZE:0
TAG:0 FORMAT:1 ENTANGLED_ADDRESSES:0 CONF:0 0 CONF:0 0 CONF:0 0 CONF:0 0 CONF:0 0 CONF:0 BB SIZE:0
SET:19
TAG:94 FORMAT:4 ENTANGLED_ADDRESSES:b3 CONF:1 4a9 CONF:2 4a9 CONF:0 12e CONF:1 0 CONF:0 0 CONF:0 BB SIZE:3
TAG:cf FORMAT:2 ENTANGLED_ADDRESSES:edcba33 CONF:3 edf891b CONF:3 13ca8 CONF:0 0 CONF:0 0 CONF:0 0 CONF:0 BB SIZE:12
TAG:2a FORMAT:1 ENTANGLED_ADDRESSES:0 CONF:0 0 CONF:0 0 CONF:0 0 CONF:0 0 CONF:0 0 CONF:0 BB SIZE:e
TAG:2bf FORMAT:3 ENTANGLED_ADDRESSES:b63b CONF:2 101a8 CONF:1 b5c5 CONF:1 0 CONF:0 0 CONF:0 0 CONF:0 BB SIZE:2
TAG:d FORMAT:6 ENTANGLED_ADDRESSES:b9 CONF:2 be CONF:2 b8 CONF:2 0 CONF:0 0 CONF:0 0 CONF:0 BB SIZE:4
TAG:1ea FORMAT:4 ENTANGLED_ADDRESSES:631 CONF:3 5ff CONF:3 620 CONF:3 604 CONF:3 0 CONF:0 0 CONF:0 BB SIZE:6
TAG:1e8 FORMAT:5 ENTANGLED_ADDRESSES:38c CONF:3 38d CONF:3 383 CONF:2 232 CONF:3 233 CONF:3 0 CONF:0 BB SIZE:1
TAG:1d0 FORMAT:3 ENTANGLED_ADDRESSES:23f4d CONF:0 25827 CONF:0 2553d CONF:2 0 CONF:0 0 CONF:0 0 CONF:0 BB SIZE:4
TAG:b2 FORMAT:3 ENTANGLED_ADDRESSES:14567 CONF:0 0 CONF:0 0 CONF:0 0 CONF:0 0 CONF:0 0 CONF:0 BB SIZE:1
TAG:0 FORMAT:1 ENTANGLED_ADDRESSES:0 CONF:0 0 CONF:0 0 CONF:0 0 CONF:0 0 CONF:0 0 CONF:0 BB SIZE:0
TAG:0 FORMAT:1 ENTANGLED_ADDRESSES:0 CONF:0 0 CONF:0 0 CONF:0 0 CONF:0 0 CONF:0 0 CONF:0 BB SIZE:0
TAG:0 FORMAT:1 ENTANGLED_ADDRESSES:0 CONF:0 0 CONF:0 0 CONF:0 0 CONF:0 0 CONF:0 0 CONF:0 BB SIZE:0
TAG:0 FORMAT:1 ENTANGLED_ADDRESSES:0 CONF:0 0 CONF:0 0 CONF:0 0 CONF:0 0 CONF:0 0 CONF:0 BB SIZE:0
TAG:0 FORMAT:1 ENTANGLED_ADDRESSES:0 CONF:0 0 CONF:0 0 CONF:0 0 CONF:0 0 CONF:0 0 CONF:0 BB SIZE:0
TAG:0 FORMAT:1 ENTANGLED_ADDRESSES:0 CONF:0 0 CONF:0 0 CONF:0 0 CONF:0 0 CONF:0 0 CONF:0 BB SIZE:0
TAG:0 FORMAT:1 ENTANGLED_ADDRESSES:0 CONF:0 0 CONF:0 0 CONF:0 0 CONF:0 0 CONF:0 0 CONF:0 BB SIZE:0
SET:20
TAG:9b FORMAT:3 ENTANGLED_ADDRESSES:a954 CONF:3 ca64 CONF:3 61f8 CONF:3 0 CONF:0 0 CONF:0 0 CONF:0 BB SIZE:2
TAG:f2 FORMAT:1 ENTANGLED_ADDRESSES:0 CONF:0 0 CONF:0 0 CONF:0 0 CONF:0 0 CONF:0 0 CONF:0 BB SIZE:3
TAG:aa FORMAT:3 ENTANGLED_ADDRESSES:73b7 CONF:3 0 CONF:0 0 CONF:0 0 CONF:0 0 CONF:0 0 CONF:0 BB SIZE:1
TAG:2c4 FORMAT:3 ENTANGLED_ADDRESSES:f72c CONF:0 2717 CONF:0 edd04af CONF:0 0 CONF:0 0 CONF:0 0 CONF:0 BB SIZE:0
TAG:1d0 FORMAT:3 ENTANGLED_ADDRESSES:277ea CONF:1 25533 CONF:2 277eb CONF:3 0 CONF:0 0 CONF:0 0 CONF:0 BB SIZE:3
TAG:0 FORMAT:1 ENTANGLED_ADDRESSES:0 CONF:0 0 CONF:0 0 CONF:0 0 CONF:0 0 CONF:0 0 CONF:0 BB SIZE:0
TAG:0 FORMAT:1 ENTANGLED_ADDRESSES:0 CONF:0 0 CONF:0 0 CONF:0 0 CONF:0 0 CONF:0 0 CONF:0 BB SIZE:0
TAG:0 FORMAT:1 ENTANGLED_ADDRESSES:0 CONF:0 0 CONF:0 0 CONF:0 0 CONF:0 0 CONF:0 0 CONF:0 BB SIZE:0
TAG:0 FORMAT:1 ENTANGLED_ADDRESSES:0 CONF:0 0 CONF:0 0 CONF:0 0 CONF:0 0 CONF:0 0 CONF:0 BB SIZE:0
TAG:0 FORMAT:1 ENTANGLED_ADDRESSES:0 CONF:0 0 CONF:0 0 CONF:0 0 CONF:0 0 CONF:0 0 CONF:0 BB SIZE:0
TAG:0 FORMAT:1 ENTANGLED_ADDRESSES:0 CONF:0 0 CONF:0 0 CONF:0 0 CONF:0 0 CONF:0 0 CONF:0 BB SIZE:0
TAG:0 FORMAT:1 ENTANGLED_ADDRESSES:0 CONF:0 0 CONF:0 0 CONF:0 0 CONF:0 0 CONF:0 0 CONF:0 BB SIZE:0
TAG:0 FORMAT:1 ENTANGLED_ADDRESSES:0 CONF:0 0 CONF:0 0 CONF:0 0 CONF:0 0 CONF:0 0 CONF:0 BB SIZE:0
TAG:0 FORMAT:1 ENTANGLED_ADDRESSES:0 CONF:0 0 CONF:0 0 CONF:0 0 CONF:0 0 CONF:0 0 CONF:0 BB SIZE:0
TAG:0 FORMAT:1 ENTANGLED_ADDRESSES:0 CONF:0 0 CONF:0 0 CONF:0 0 CONF:0 0 CONF:0 0 CONF:0 BB SIZE:0
TAG:0 FORMAT:1 ENTANGLED_ADDRESSES:0 CONF:0 0 CONF:0 0 CONF:0 0 CONF:0 0 CONF:0 0 CONF:0 BB SIZE:0
SET:21
TAG:9a FORMAT:4 ENTANGLED_ADDRESSES:12e CONF:3 1b24 CONF:0 1b13 CONF:3 1b22 CONF:0 0 CONF:0 0 CONF:0 BB SIZE:6
TAG:94 FORMAT:3 ENTANGLED_ADDRESSES:277c7 CONF:0 0 CONF:0 0 CONF:0 0 CONF:0 0 CONF:0 0 CONF:0 BB SIZE:0
TAG:e1 FORMAT:3 ENTANGLED_ADDRESSES:4942 CONF:3 96d2 CONF:3 2251 CONF:3 0 CONF:0 0 CONF:0 0 CONF:0 BB SIZE:d
TAG:2a FORMAT:1 ENTANGLED_ADDRESSES:0 CONF:0 0 CONF:0 0 CONF:0 0 CONF:0 0 CONF:0 0 CONF:0 BB SIZE:1
TAG:9f FORMAT:3 ENTANGLED_ADDRESSES:c3a9 CONF:2 29cd CONF:2 e471 CONF:3 0 CONF:0 0 CONF:0 0 CONF:0 BB SIZE:3
TAG:f2 FORMAT:2 ENTANGLED_ADDRESSES:ecc2442 CONF:3 edf891b CONF:3 0 CONF:0 0 CONF:0 0 CONF:0 0 CONF:0 BB SIZE:9
TAG:2bf FORMAT:6 ENTANGLED_ADDRESSES:41 CONF:2 18 CONF:2 31 CONF:2 0 CONF:0 0 CONF:0 0 CONF:0 BB SIZE:4
TAG:99 FORMAT:4 ENTANGLED_ADDRESSES:1a82 CONF:2 1a7a CONF:3 0 CONF:0 0 CONF:0 0 CONF:0 0 CONF:0 BB SIZE:6
TAG:1ef FORMAT:2 ENTANGLED_ADDRESSES:edcae7e CONF:2 edcac77 CONF:3 0 CONF:0 0 CONF:0 0 CONF:0 0 CONF:0 BB SIZE:2
TAG:b2 FORMAT:5 ENTANGLED_ADDRESSES:2c7 CONF:3 2d1 CONF:3 cdd CONF:0 0 CONF:0 0 CONF:0 0 CONF:0 BB SIZE:1
TAG:d7 FORMAT:3 ENTANGLED_ADDRESSES:2776a CONF:3 0 CONF:0 0 CONF:0 0 CONF:0 0 CONF:0 0 CONF:0 BB SIZE:3
TAG:3d FORMAT:1 ENTANGLED_ADDRESSES:0 CONF:0 0 CONF:0 0 CONF:0 0 CONF:0 0 CONF:0 0 CONF:0 BB SIZE:2
TAG:0 FORMAT:1 ENTANGLED_ADDRESSES:0 CONF:0 0 CONF:0 0 CONF:0 0 CONF:0 0 CONF:0 0 CONF:0 BB SIZE:0
TAG:0 FORMAT:1 ENTANGLED_ADDRESSES:0 CONF:0 0 CONF:0 0 CONF:0 0 CONF:0 0 CONF:0 0 CONF:0 BB SIZE:0
TAG:0 FORMAT:1 ENTANGLED_ADDRESSES:0 CONF:0 0 CONF:0 0 CONF:0 0 CONF:0 0 CONF:0 0 CONF:0 BB SIZE:0
TAG:0 FORMAT:1 ENTANGLED_ADDRESSES:0 CONF:0 0 CONF:0 0 CONF:0 0 CONF:0 0 CONF:0 0 CONF:0 BB SIZE:0
SET:22
TAG:2a FORMAT:1 ENTANGLED_ADDRESSES:0 CONF:0 0 CONF:0 0 CONF:0 0 CONF:0 0 CONF:0 0 CONF:0 BB SIZE:3
TAG:94 FORMAT:3 ENTANGLED_ADDRESSES:277c7 CONF:0 382a CONF:2 21f2 CONF:3 0 CONF:0 0 CONF:0 0 CONF:0 BB SIZE:1
TAG:ea FORMAT:3 ENTANGLED_ADDRESSES:a46d CONF:3 eac CONF:1 c06d CONF:1 0 CONF:0 0 CONF:0 0 CONF:0 BB SIZE:5
TAG:9a FORMAT:3 ENTANGLED_ADDRESSES:f7c6 CONF:2 f9e7 CONF:3 3b1d CONF:2 0 CONF:0 0 CONF:0 0 CONF:0 BB SIZE:7
TAG:d4 FORMAT:1 ENTANGLED_ADDRESSES:0 CONF:0 0 CONF:0 0 CONF:0 0 CONF:0 0 CONF:0 0 CONF:0 BB SIZE:1
TAG:3d FORMAT:3 ENTANGLED_ADDRESSES:1ba7 CONF:3 1bac CONF:2 1bab CONF:2 0 CONF:0 0 CONF:0 0 CONF:0 BB SIZE:1
TAG:3f FORMAT:6 ENTANGLED_ADDRESSES:52 CONF:3 0 CONF:0 0 CONF:0 0 CONF:0 0 CONF:0 0 CONF:0 BB SIZE:0
TAG:2bf FORMAT:1 ENTANGLED_ADDRESSES:0 CONF:0 0 CONF:0 0 CONF:0 0 CONF:0 0 CONF:0 0 CONF:0 BB SIZE:1
TAG:0 FORMAT:1 ENTANGLED_ADDRESSES:0 CONF:0 0 CONF:0 0 CONF:0 0 CONF:0 0 CONF:0 0 CONF:0 BB SIZE:0
TAG:0 FORMAT:1 ENTANGLED_ADDRESSES:0 CONF:0 0 CONF:0 0 CONF:0 0 CONF:0 0 CONF:0 0 CONF:0 BB SIZE:0
TAG:0 FORMAT:1 ENTANGLED_ADDRESSES:0 CONF:0 0 CONF:0 0 CONF:0 0 CONF:0 0 CONF:0 0 CONF:0 BB SIZE:0
TAG:0 FORMAT:1 ENTANGLED_ADDRESSES:0 CONF:0 0 CONF:0 0 CONF:0 0 CONF:0 0 CONF:0 0 CONF:0 BB SIZE:0
TAG:0 FORMAT:1 ENTANGLED_ADDRESSES:0 CONF:0 0 CONF:0 0 CONF:0 0 CONF:0 0 CONF:0 0 CONF:0 BB SIZE:0
TAG:0 FORMAT:1 ENTANGLED_ADDRESSES:0 CONF:0 0 CONF:0 0 CONF:0 0 CONF:0 0 CONF:0 0 CONF:0 BB SIZE:0
TAG:0 FORMAT:1 ENTANGLED_ADDRESSES:0 CONF:0 0 CONF:0 0 CONF:0 0 CONF:0 0 CONF:0 0 CONF:0 BB SIZE:0
TAG:0 FORMAT:1 ENTANGLED_ADDRESSES:0 CONF:0 0 CONF:0 0 CONF:0 0 CONF:0 0 CONF:0 0 CONF:0 BB SIZE:0
SET:23
TAG:9a FORMAT:3 ENTANGLED_ADDRESSES:3b22 CONF:3 3b26 CONF:3 f9f6 CONF:3 0 CONF:0 0 CONF:0 0 CONF:0 BB SIZE:1
TAG:ad FORMAT:3 ENTANGLED_ADDRESSES:4b43 CONF:0 38c5 CONF:0 46f4 CONF:0 4b40 CONF:0 0 CONF:0 0 CONF:0 BB SIZE:1
TAG:da FORMAT:2 ENTANGLED_ADDRESSES:edce101 CONF:3 1533 CONF:0 ecce96a CONF:3 0 CONF:0 0 CONF:0 0 CONF:0 BB SIZE:10
TAG:9b FORMAT:3 ENTANGLED_ADDRESSES:12116 CONF:3 1f9e CONF:3 12878 CONF:3 0 CONF:0 0 CONF:0 0 CONF:0 BB SIZE:7
TAG:f2 FORMAT:1 ENTANGLED_ADDRESSES:0 CONF:0 0 CONF:0 0 CONF:0 0 CONF:0 0 CONF:0 0 CONF:0 BB SIZE:1
TAG:e1 FORMAT:4 ENTANGLED_ADDRESSES:16d2 CONF:3 0 CONF:0 0 CONF:0 0 CONF:0 0 CONF:0 0 CONF:0 BB SIZE:b
TAG:1ef FORMAT:2 ENTANGLED_ADDRESSES:edbc6fa CONF:3 edcb72c CONF:3 0 CONF:0 0 CONF:0 0 CONF:0 0 CONF:0 BB SIZE:1
TAG:0 FORMAT:1 ENTANGLED_ADDRESSES:0 CONF:0 0 CONF:0 0 CONF:0 0 CONF:0 0 CONF:0 0 CONF:0 BB SIZE:0
TAG:0 FORMAT:1 ENTANGLED_ADDRESSES:0 CONF:0 0 CONF:0 0 CONF:0 0 CONF:0 0 CONF:0 0 CONF:0 BB SIZE:0
TAG:0 FORMAT:1 ENTANGLED_ADDRESSES:0 CONF:0 0 CONF:0 0 CONF:0 0 CONF:0 0 CONF:0 0 CONF:0 BB SIZE:0
TAG:0 FORMAT:1 ENTANGLED_ADDRESSES:0 CONF:0 0 CONF:0 0 CONF:0 0 CONF:0 0 CONF:0 0 CONF:0 BB SIZE:0
TAG:0 FORMAT:1 ENTANGLED_ADDRESSES:0 CONF:0 0 CONF:0 0 CONF:0 0 CONF:0 0 CONF:0 0 CONF:0 BB SIZE:0
TAG:0 FORMAT:1 ENTANGLED_ADDRESSES:0 CONF:0 0 CONF:0 0 CONF:0 0 CONF:0 0 CONF:0 0 CONF:0 BB SIZE:0
TAG:0 FORMAT:1 ENTANGLED_ADDRESSES:0 CONF:0 0 CONF:0 0 CONF:0 0 CONF:0 0 CONF:0 0 CONF:0 BB SIZE:0
TAG:0 FORMAT:1 ENTANGLED_ADDRESSES:0 CONF:0 0 CONF:0 0 CONF:0 0 CONF:0 0 CONF:0 0 CONF:0 BB SIZE:0
TAG:0 FORMAT:1 ENTANGLED_ADDRESSES:0 CONF:0 0 CONF:0 0 CONF:0 0 CONF:0 0 CONF:0 0 CONF:0 BB SIZE:0
SET:24
TAG:e1 FORMAT:3 ENTANGLED_ADDRESSES:8815 CONF:0 681d CONF:1 8f52 CONF:1 0 CONF:0 0 CONF:0 0 CONF:0 BB SIZE:c
TAG:d7 FORMAT:3 ENTANGLED_ADDRESSES:23e46 CONF:2 23e46 CONF:0 25444 CONF:0 0 CONF:0 0 CONF:0 0 CONF:0 BB SIZE:6
TAG:d2 FORMAT:3 ENTANGLED_ADDRESSES:7831 CONF:2 0 CONF:0 0 CONF:0 0 CONF:0 0 CONF:0 0 CONF:0 BB SIZE:5
TAG:b6 FORMAT:4 ENTANGLED_ADDRESSES:1c1d CONF:2 0 CONF:0 0 CONF:0 0 CONF:0 0 CONF:0 0 CONF:0 BB SIZE:1
TAG:d FORMAT:2 ENTANGLED_ADDRESSES:edd0d13 CONF:3 ecc4f7a CONF:3 0 CONF:0 0 CONF:0 0 CONF:0 0 CONF:0 BB SIZE:1
TAG:ad FORMAT:4 ENTANGLED_ADDRESSES:b1f CONF:3 6e2 CONF:2 0 CONF:0 0 CONF:0 0 CONF:0 0 CONF:0 BB SIZE:0
TAG:1ef FORMAT:1 ENTANGLED_ADDRESSES:0 CONF:0 0 CONF:0 0 CONF:0 0 CONF:0 0 CONF:0 0 CONF:0 BB SIZE:1
TAG:3f FORMAT:3 ENTANGLED_ADDRESSES:1454a CONF:3 cde CONF:3 0 CONF:0 0 CONF:0 0 CONF:0 0 CONF:0 BB SIZE:2
TAG:0 FORMAT:1 ENTANGLED_ADDRESSES:0 CONF:0 0 CONF:0 0 CONF:0 0 CONF:0 0 CONF:0 0 CONF:0 BB SIZE:0
TAG:0 FORMAT:1 ENTANGLED_ADDRESSES:0 CONF:0 0 CONF:0 0 CONF:0 0 CONF:0 0 CONF:0 0 CONF:0 BB SIZE:0
TAG:0 FORMAT:1 ENTANGLED_ADDRESSES:0 CONF:0 0 CONF:0 0 CONF:0 0 CONF:0 0 CONF:0 0 CONF:0 BB SIZE:0
TAG:0 FORMAT:1 ENTANGLED_ADDRESSES:0 CONF:0 0 CONF:0 0 CONF:0 0 CONF:0 0 CONF:0 0 CONF:0 BB SIZE:0
TAG:0 FORMAT:1 ENTANGLED_ADDRESSES:0 CONF:0 0 CONF:0 0 CONF:0 0 CONF:0 0 CONF:0 0 CONF:0 BB SIZE:0
TAG:0 FORMAT:1 ENTANGLED_ADDRESSES:0 CONF:0 0 CONF:0 0 CONF:0 0 CONF:0 0 CONF:0 0 CONF:0 BB SIZE:0
TAG:0 FORMAT:1 ENTANGLED_ADDRESSES:0 CONF:0 0 CONF:0 0 CONF:0 0 CONF:0 0 CONF:0 0 CONF:0 BB SIZE:0
TAG:0 FORMAT:1 ENTANGLED_ADDRESSES:0 CONF:0 0 CONF:0 0 CONF:0 0 CONF:0 0 CONF:0 0 CONF:0 BB SIZE:0
SET:25
TAG:38 FORMAT:6 ENTANGLED_ADDRESSES:8e CONF:3 53 CONF:3 51 CONF:3 0 CONF:0 0 CONF:0 0 CONF:0 BB SIZE:4
TAG:1e8 FORMAT:5 ENTANGLED_ADDRESSES:201 CONF:3 238 CONF:3 22a CONF:0 203 CONF:3 237 CONF:3 0 CONF:0 BB SIZE:6
TAG:1ef FORMAT:2 ENTANGLED_ADDRESSES:edcaeba CONF:2 edbfe7d CONF:3 0 CONF:0 0 CONF:0 0 CONF:0 0 CONF:0 BB SIZE:1
TAG:2bf FORMAT:6 ENTANGLED_ADDRESSES:19 CONF:0 0 CONF:0 0 CONF:0 0 CONF:0 0 CONF:0 0 CONF:0 BB SIZE:1
TAG:b2 FORMAT:1 ENTANGLED_ADDRESSES:3fffedf8901 CONF:3 0 CONF:0 0 CONF:0 0 CONF:0 0 CONF:0 0 CONF:0 BB SIZE:0
TAG:0 FORMAT:1 ENTANGLED_ADDRESSES:0 CONF:0 0 CONF:0 0 CONF:0 0 CONF:0 0 CONF:0 0 CONF:0 BB SIZE:0
TAG:0 FORMAT:1 ENTANGLED_ADDRESSES:0 CONF:0 0 CONF:0 0 CONF:0 0 CONF:0 0 CONF:0 0 CONF:0 BB SIZE:0
TAG:0 FORMAT:1 ENTANGLED_ADDRESSES:0 CONF:0 0 CONF:0 0 CONF:0 0 CONF:0 0 CONF:0 0 CONF:0 BB SIZE:0
TAG:0 FORMAT:1 ENTANGLED_ADDRESSES:0 CONF:0 0 CONF:0 0 CONF:0 0 CONF:0 0 CONF:0 0 CONF:0 BB SIZE:0
TAG:0 FORMAT:1 ENTANGLED_ADDRESSES:0 CONF:0 0 CONF:0 0 CONF:0 0 CONF:0 0 CONF:0 0 CONF:0 BB SIZE:0
TAG:0 FORMAT:1 ENTANGLED_ADDRESSES:0 CONF:0 0 CONF:0 0 CONF:0 0 CONF:0 0 CONF:0 0 CONF:0 BB SIZE:0
TAG:0 FORMAT:1 ENTANGLED_ADDRESSES:0 CONF:0 0 CONF:0 0 CONF:0 0 CONF:0 0 CONF:0 0 CONF:0 BB SIZE:0
TAG:0 FORMAT:1 ENTANGLED_ADDRESSES:0 CONF:0 0 CONF:0 0 CONF:0 0 CONF:0 0 CONF:0 0 CONF:0 BB SIZE:0
TAG:0 FORMAT:1 ENTANGLED_ADDRESSES:0 CONF:0 0 CONF:0 0 CONF:0 0 CONF:0 0 CONF:0 0 CONF:0 BB SIZE:0
TAG:0 FORMAT:1 ENTANGLED_ADDRESSES:0 CONF:0 0 CONF:0 0 CONF:0 0 CONF:0 0 CONF:0 0 CONF:0 BB SIZE:0
TAG:0 FORMAT:1 ENTANGLED_ADDRESSES:0 CONF:0 0 CONF:0 0 CONF:0 0 CONF:0 0 CONF:0 0 CONF:0 BB SIZE:0
SET:26
TAG:f2 FORMAT:6 ENTANGLED_ADDRESSES:a5 CONF:3 0 CONF:0 0 CONF:0 0 CONF:0 0 CONF:0 0 CONF:0 BB SIZE:3
TAG:2bf FORMAT:2 ENTANGLED_ADDRESSES:edb5caa CONF:3 edcbbdf CONF:2 1624 CONF:0 0 CONF:0 0 CONF:0 0 CONF:0 BB SIZE:1
TAG:3f FORMAT:6 ENTANGLED_ADDRESSES:48 CONF:3 65 CONF:3 0 CONF:0 0 CONF:0 0 CONF:0 0 CONF:0 BB SIZE:1
TAG:2a2 FORMAT:1 ENTANGLED_ADDRESSES:0 CONF:0 0 CONF:0 0 CONF:0 0 CONF:0 0 CONF:0 0 CONF:0 BB SIZE:2
TAG:0 FORMAT:1 ENTANGLED_ADDRESSES:0 CONF:0 0 CONF:0 0 CONF:0 0 CONF:0 0 CONF:0 0 CONF:0 BB SIZE:0
TAG:0 FORMAT:1 ENTANGLED_ADDRESSES:0 CONF:0 0 CONF:0 0 CONF:0 0 CONF:0 0 CONF:0 0 CONF:0 BB SIZE:0
TAG:0 FORMAT:1 ENTANGLED_ADDRESSES:0 CONF:0 0 CONF:0 0 CONF:0 0 CONF:0 0 CONF:0 0 CONF:0 BB SIZE:0
TAG:0 FORMAT:1 ENTANGLED_ADDRESSES:0 CONF:0 0 CONF:0 0 CONF:0 0 CONF:0 0 CONF:0 0 CONF:0 BB SIZE:0
TAG:0 FORMAT:1 ENTANGLED_ADDRESSES:0 CONF:0 0 CONF:0 0 CONF:0 0 CONF:0 0 CONF:0 0 CONF:0 BB SIZE:0
TAG:0 FORMAT:1 ENTANGLED_ADDRESSES:0 CONF:0 0 CONF:0 0 CONF:0 0 CONF:0 0 CONF:0 0 CONF:0 BB SIZE:0
TAG:0 FORMAT:1 ENTANGLED_ADDRESSES:0 CONF:0 0 CONF:0 0 CONF:0 0 CONF:0 0 CONF:0 0 CONF:0 BB SIZE:0
TAG:0 FORMAT:1 ENTANGLED_ADDRESSES:0 CONF:0 0 CONF:0 0 CONF:0 0 CONF:0 0 CONF:0 0 CONF:0 BB SIZE:0
TAG:0 FORMAT:1 ENTANGLED_ADDRESSES:0 CONF:0 0 CONF:0 0 CONF:0 0 CONF:0 0 CONF:0 0 CONF:0 BB SIZE:0
TAG:0 FORMAT:1 ENTANGLED_ADDRESSES:0 CONF:0 0 CONF:0 0 CONF:0 0 CONF:0 0 CONF:0 0 CONF:0 BB SIZE:0
TAG:0 FORMAT:1 ENTANGLED_ADDRESSES:0 CONF:0 0 CONF:0 0 CONF:0 0 CONF:0 0 CONF:0 0 CONF:0 BB SIZE:0
TAG:0 FORMAT:1 ENTANGLED_ADDRESSES:0 CONF:0 0 CONF:0 0 CONF:0 0 CONF:0 0 CONF:0 0 CONF:0 BB SIZE:0
SET:27
TAG:b2 FORMAT:3 ENTANGLED_ADDRESSES:79ed CONF:3 3eb2 CONF:3 79e9 CONF:3 1eb CONF:0 1e9 CONF:0 0 CONF:0 BB SIZE:2
TAG:b6 FORMAT:3 ENTANGLED_ADDRESSES:f89 CONF:3 2e7b CONF:3 3fc0 CONF:3 0 CONF:0 0 CONF:0 0 CONF:0 BB SIZE:3
TAG:9b FORMAT:3 ENTANGLED_ADDRESSES:4880 CONF:2 b3cb CONF:3 c98b CONF:3 0 CONF:0 0 CONF:0 0 CONF:0 BB SIZE:7
TAG:d4 FORMAT:6 ENTANGLED_ADDRESSES:59 CONF:2 5f CONF:2 0 CONF:0 0 CONF:0 0 CONF:0 0 CONF:0 BB SIZE:1
TAG:1ea FORMAT:3 ENTANGLED_ADDRESSES:30a7 CONF:3 30b1 CONF:3 2580a CONF:2 0 CONF:0 0 CONF:0 0 CONF:0 BB SIZE:1
TAG:97 FORMAT:3 ENTANGLED_ADDRESSES:6da CONF:3 5b3 CONF:2 6d3 CONF:3 0 CONF:0 0 CONF:0 0 CONF:0 BB SIZE:4
TAG:285 FORMAT:2 ENTANGLED_ADDRESSES:edcda9d CONF:3 edbd3b7 CONF:3 0 CONF:0 0 CONF:0 0 CONF:0 0 CONF:0 BB SIZE:2
TAG:2a2 FORMAT:3 ENTANGLED_ADDRESSES:2775 CONF:3 0 CONF:0 0 CONF:0 0 CONF:0 0 CONF:0 0 CONF:0 BB SIZE:1
TAG:0 FORMAT:3 ENTANGLED_ADDRESSES:a94f CONF:3 c0ed CONF:3 c0ef CONF:3 0 CONF:0 0 CONF:0 0 CONF:0 BB SIZE:1
TAG:0 FORMAT:1 ENTANGLED_ADDRESSES:0 CONF:0 0 CONF:0 0 CONF:0 0 CONF:0 0 CONF:0 0 CONF:0 BB SIZE:0
TAG:0 FORMAT:1 ENTANGLED_ADDRESSES:0 CONF:0 0 CONF:0 0 CONF:0 0 CONF:0 0 CONF:0 0 CONF:0 BB SIZE:0
TAG:0 FORMAT:1 ENTANGLED_ADDRESSES:0 CONF:0 0 CONF:0 0 CONF:0 0 CONF:0 0 CONF:0 0 CONF:0 BB SIZE:0
TAG:0 FORMAT:1 ENTANGLED_ADDRESSES:0 CONF:0 0 CONF:0 0 CONF:0 0 CONF:0 0 CONF:0 0 CONF:0 BB SIZE:0
TAG:0 FORMAT:1 ENTANGLED_ADDRESSES:0 CONF:0 0 CONF:0 0 CONF:0 0 CONF:0 0 CONF:0 0 CONF:0 BB SIZE:0
TAG:0 FORMAT:1 ENTANGLED_ADDRESSES:0 CONF:0 0 CONF:0 0 CONF:0 0 CONF:0 0 CONF:0 0 CONF:0 BB SIZE:0
TAG:0 FORMAT:1 ENTANGLED_ADDRESSES:0 CONF:0 0 CONF:0 0 CONF:0 0 CONF:0 0 CONF:0 0 CONF:0 BB SIZE:0
SET:28
TAG:ad FORMAT:5 ENTANGLED_ADDRESSES:339 CONF:1 301 CONF:3 3c7 CONF:2 6f5 CONF:0 afe CONF:0 0 CONF:0 BB SIZE:3
TAG:98 FORMAT:2 ENTANGLED_ADDRESSES:ecc6a83 CONF:2 e8e4a5a CONF:3 0 CONF:0 0 CONF:0 0 CONF:0 0 CONF:0 BB SIZE:2
TAG:1e8 FORMAT:5 ENTANGLED_ADDRESSES:380 CONF:2 22d CONF:3 0 CONF:0 0 CONF:0 0 CONF:0 0 CONF:0 BB SIZE:3
TAG:285 FORMAT:3 ENTANGLED_ADDRESSES:ac7c CONF:3 da6a CONF:3 da65 CONF:3 0 CONF:0 0 CONF:0 0 CONF:0 BB SIZE:3
TAG:99 FORMAT:1 ENTANGLED_ADDRESSES:0 CONF:0 0 CONF:0 0 CONF:0 0 CONF:0 0 CONF:0 0 CONF:0 BB SIZE:1
TAG:2bf FORMAT:4 ENTANGLED_ADDRESSES:bc2 CONF:2 bee CONF:3 0 CONF:0 0 CONF:0 0 CONF:0 0 CONF:0 BB SIZE:0
TAG:0 FORMAT:3 ENTANGLED_ADDRESSES:78a4 CONF:2 1213c CONF:3 680b CONF:3 0 CONF:0 0 CONF:0 0 CONF:0 BB SIZE:0
TAG:0 FORMAT:1 ENTANGLED_ADDRESSES:0 CONF:0 0 CONF:0 0 CONF:0 0 CONF:0 0 CONF:0 0 CONF:0 BB SIZE:0
TAG:0 FORMAT:1 ENTANGLED_ADDRESSES:0 CONF:0 0 CONF:0 0 CONF:0 0 CONF:0 0 CONF:0 0 CONF:0 BB SIZE:0
TAG:0 FORMAT:1 ENTANGLED_ADDRESSES:0 CONF:0 0 CONF:0 0 CONF:0 0 CONF:0 0 CONF:0 0 CONF:0 BB SIZE:0
TAG:0 FORMAT:1 ENTANGLED_ADDRESSES:0 CONF:0 0 CONF:0 0 CONF:0 0 CONF:0 0 CONF:0 0 CONF:0 BB SIZE:0
TAG:0 FORMAT:1 ENTANGLED_ADDRESSES:0 CONF:0 0 CONF:0 0 CONF:0 0 CONF:0 0 CONF:0 0 CONF:0 BB SIZE:0
TAG:0 FORMAT:1 ENTANGLED_ADDRESSES:0 CONF:0 0 CONF:0 0 CONF:0 0 CONF:0 0 CONF:0 0 CONF:0 BB SIZE:0
TAG:0 FORMAT:1 ENTANGLED_ADDRESSES:0 CONF:0 0 CONF:0 0 CONF:0 0 CONF:0 0 CONF:0 0 CONF:0 BB SIZE:0
TAG:0 FORMAT:1 ENTANGLED_ADDRESSES:0 CONF:0 0 CONF:0 0 CONF:0 0 CONF:0 0 CONF:0 0 CONF:0 BB SIZE:0
TAG:0 FORMAT:1 ENTANGLED_ADDRESSES:0 CONF:0 0 CONF:0 0 CONF:0 0 CONF:0 0 CONF:0 0 CONF:0 BB SIZE:0
SET:29
TAG:f1 FORMAT:3 ENTANGLED_ADDRESSES:38c1 CONF:3 aca4 CONF:3 e1ee CONF:3 0 CONF:0 0 CONF:0 0 CONF:0 BB SIZE:10
TAG:d2 FORMAT:2 ENTANGLED_ADDRESSES:eccbe43 CONF:3 edf891b CONF:3 0 CONF:0 0 CONF:0 0 CONF:0 0 CONF:0 BB SIZE:5
TAG:2bf FORMAT:3 ENTANGLED_ADDRESSES:b619 CONF:3 3c661 CONF:3 1580 CONF:0 0 CONF:0 0 CONF:0 0 CONF:0 BB SIZE:1
TAG:285 FORMAT:3 ENTANGLED_ADDRESSES:ac82 CONF:3 ac7f CONF:3 da67 CONF:3 0 CONF:0 0 CONF:0 0 CONF:0 BB SIZE:3
TAG:2bd FORMAT:2 ENTANGLED_ADDRESSES:edbc90f CONF:3 edc10a8 CONF:2 0 CONF:0 0 CONF:0 0 CONF:0 0 CONF:0 BB SIZE:2
TAG:0 FORMAT:1 ENTANGLED_ADDRESSES:0 CONF:0 0 CONF:0 0 CONF:0 0 CONF:0 0 CONF:0 0 CONF:0 BB SIZE:0
TAG:0 FORMAT:1 ENTANGLED_ADDRESSES:0 CONF:0 0 CONF:0 0 CONF:0 0 CONF:0 0 CONF:0 0 CONF:0 BB SIZE:0
TAG:0 FORMAT:1 ENTANGLED_ADDRESSES:0 CONF:0 0 CONF:0 0 CONF:0 0 CONF:0 0 CONF:0 0 CONF:0 BB SIZE:0
TAG:0 FORMAT:1 ENTANGLED_ADDRESSES:0 CONF:0 0 CONF:0 0 CONF:0 0 CONF:0 0 CONF:0 0 CONF:0 BB SIZE:0
TAG:0 FORMAT:1 ENTANGLED_ADDRESSES:0 CONF:0 0 CONF:0 0 CONF:0 0 CONF:0 0 CONF:0 0 CONF:0 BB SIZE:0
TAG:0 FORMAT:1 ENTANGLED_ADDRESSES:0 CONF:0 0 CONF:0 0 CONF:0 0 CONF:0 0 CONF:0 0 CONF:0 BB SIZE:0
TAG:0 FORMAT:1 ENTANGLED_ADDRESSES:0 CONF:0 0 CONF:0 0 CONF:0 0 CONF:0 0 CONF:0 0 CONF:0 BB SIZE:0
TAG:0 FORMAT:1 ENTANGLED_ADDRESSES:0 CONF:0 0 CONF:0 0 CONF:0 0 CONF:0 0 CONF:0 0 CONF:0 BB SIZE:0
TAG:0 FORMAT:1 ENTANGLED_ADDRESSES:0 CONF:0 0 CONF:0 0 CONF:0 0 CONF:0 0 CONF:0 0 CONF:0 BB SIZE:0
TAG:0 FORMAT:1 ENTANGLED_ADDRESSES:0 CONF:0 0 CONF:0 0 CONF:0 0 CONF:0 0 CONF:0 0 CONF:0 BB SIZE:0
TAG:0 FORMAT:1 ENTANGLED_ADDRESSES:0 CONF:0 0 CONF:0 0 CONF:0 0 CONF:0 0 CONF:0 0 CONF:0 BB SIZE:0
SET:30
TAG:ec FORMAT:3 ENTANGLED_ADDRESSES:de8c CONF:0 52b4 CONF:3 86fc CONF:0 0 CONF:0 0 CONF:0 0 CONF:0 BB SIZE:1
TAG:285 FORMAT:2 ENTANGLED_ADDRESSES:edbd3c3 CONF:3 e1cf CONF:0 edc20a9 CONF:3 0 CONF:0 0 CONF:0 0 CONF:0 BB SIZE:2
TAG:99 FORMAT:1 ENTANGLED_ADDRESSES:0 CONF:0 0 CONF:0 0 CONF:0 0 CONF:0 0 CONF:0 0 CONF:0 BB SIZE:1
TAG:0 FORMAT:1 ENTANGLED_ADDRESSES:0 CONF:0 0 CONF:0 0 CONF:0 0 CONF:0 0 CONF:0 0 CONF:0 BB SIZE:0
TAG:0 FORMAT:1 ENTANGLED_ADDRESSES:0 CONF:0 0 CONF:0 0 CONF:0 0 CONF:0 0 CONF:0 0 CONF:0 BB SIZE:0
TAG:0 FORMAT:1 ENTANGLED_ADDRESSES:0 CONF:0 0 CONF:0 0 CONF:0 0 CONF:0 0 CONF:0 0 CONF:0 BB SIZE:0
TAG:0 FORMAT:1 ENTANGLED_ADDRESSES:0 CONF:0 0 CONF:0 0 CONF:0 0 CONF:0 0 CONF:0 0 CONF:0 BB SIZE:0
TAG:0 FORMAT:1 ENTANGLED_ADDRESSES:0 CONF:0 0 CONF:0 0 CONF:0 0 CONF:0 0 CONF:0 0 CONF:0 BB SIZE:0
TAG:0 FORMAT:1 ENTANGLED_ADDRESSES:0 CONF:0 0 CONF:0 0 CONF:0 0 CONF:0 0 CONF:0 0 CONF:0 BB SIZE:0
TAG:0 FORMAT:1 ENTANGLED_ADDRESSES:0 CONF:0 0 CONF:0 0 CONF:0 0 CONF:0 0 CONF:0 0 CONF:0 BB SIZE:0
TAG:0 FORMAT:1 ENTANGLED_ADDRESSES:0 CONF:0 0 CONF:0 0 CONF:0 0 CONF:0 0 CONF:0 0 CONF:0 BB SIZE:0
TAG:0 FORMAT:1 ENTANGLED_ADDRESSES:0 CONF:0 0 CONF:0 0 CONF:0 0 CONF:0 0 CONF:0 0 CONF:0 BB SIZE:0
TAG:0 FORMAT:1 ENTANGLED_ADDRESSES:0 CONF:0 0 CONF:0 0 CONF:0 0 CONF:0 0 CONF:0 0 CONF:0 BB SIZE:0
TAG:0 FORMAT:1 ENTANGLED_ADDRESSES:0 CONF:0 0 CONF:0 0 CONF:0 0 CONF:0 0 CONF:0 0 CONF:0 BB SIZE:0
TAG:0 FORMAT:1 ENTANGLED_ADDRESSES:0 CONF:0 0 CONF:0 0 CONF:0 0 CONF:0 0 CONF:0 0 CONF:0 BB SIZE:0
TAG:0 FORMAT:1 ENTANGLED_ADDRESSES:0 CONF:0 0 CONF:0 0 CONF:0 0 CONF:0 0 CONF:0 0 CONF:0 BB SIZE:0
SET:31
TAG:9b FORMAT:1 ENTANGLED_ADDRESSES:0 CONF:0 0 CONF:0 0 CONF:0 0 CONF:0 0 CONF:0 0 CONF:0 BB SIZE:1
TAG:99 FORMAT:4 ENTANGLED_ADDRESSES:1a82 CONF:2 0 CONF:0 0 CONF:0 0 CONF:0 0 CONF:0 0 CONF:0 BB SIZE:1
TAG:36f FORMAT:3 ENTANGLED_ADDRESSES:9209 CONF:2 0 CONF:0 0 CONF:0 0 CONF:0 0 CONF:0 0 CONF:0 BB SIZE:0
TAG:d FORMAT:1 ENTANGLED_ADDRESSES:0 CONF:0 0 CONF:0 0 CONF:0 0 CONF:0 0 CONF:0 0 CONF:0 BB SIZE:d
TAG:1b4 FORMAT:2 ENTANGLED_ADDRESSES:edb7d8f CONF:2 edcda80 CONF:3 0 CONF:0 0 CONF:0 0 CONF:0 0 CONF:0 BB SIZE:0
TAG:0 FORMAT:1 ENTANGLED_ADDRESSES:0 CONF:0 0 CONF:0 0 CONF:0 0 CONF:0 0 CONF:0 0 CONF:0 BB SIZE:0
TAG:0 FORMAT:1 ENTANGLED_ADDRESSES:0 CONF:0 0 CONF:0 0 CONF:0 0 CONF:0 0 CONF:0 0 CONF:0 BB SIZE:0
TAG:0 FORMAT:1 ENTANGLED_ADDRESSES:0 CONF:0 0 CONF:0 0 CONF:0 0 CONF:0 0 CONF:0 0 CONF:0 BB SIZE:0
TAG:0 FORMAT:1 ENTANGLED_ADDRESSES:0 CONF:0 0 CONF:0 0 CONF:0 0 CONF:0 0 CONF:0 0 CONF:0 BB SIZE:0
TAG:0 FORMAT:1 ENTANGLED_ADDRESSES:0 CONF:0 0 CONF:0 0 CONF:0 0 CONF:0 0 CONF:0 0 CONF:0 BB SIZE:0
TAG:0 FORMAT:1 ENTANGLED_ADDRESSES:0 CONF:0 0 CONF:0 0 CONF:0 0 CONF:0 0 CONF:0 0 CONF:0 BB SIZE:0
TAG:0 FORMAT:1 ENTANGLED_ADDRESSES:0 CONF:0 0 CONF:0 0 CONF:0 0 CONF:0 0 CONF:0 0 CONF:0 BB SIZE:0
TAG:0 FORMAT:1 ENTANGLED_ADDRESSES:0 CONF:0 0 CONF:0 0 CONF:0 0 CONF:0 0 CONF:0 0 CONF:0 BB SIZE:0
TAG:0 FORMAT:1 ENTANGLED_ADDRESSES:0 CONF:0 0 CONF:0 0 CONF:0 0 CONF:0 0 CONF:0 0 CONF:0 BB SIZE:0
TAG:0 FORMAT:1 ENTANGLED_ADDRESSES:0 CONF:0 0 CONF:0 0 CONF:0 0 CONF:0 0 CONF:0 0 CONF:0 BB SIZE:0
TAG:0 FORMAT:1 ENTANGLED_ADDRESSES:0 CONF:0 0 CONF:0 0 CONF:0 0 CONF:0 0 CONF:0 0 CONF:0 BB SIZE:0
SET:32
TAG:f1 FORMAT:3 ENTANGLED_ADDRESSES:76fc CONF:2 76ff CONF:2 0 CONF:0 0 CONF:0 0 CONF:0 0 CONF:0 BB SIZE:1
TAG:9b FORMAT:3 ENTANGLED_ADDRESSES:356d CONF:2 d0fb CONF:3 1700 CONF:2 0 CONF:0 0 CONF:0 0 CONF:0 BB SIZE:3
TAG:0 FORMAT:1 ENTANGLED_ADDRESSES:0 CONF:0 0 CONF:0 0 CONF:0 0 CONF:0 0 CONF:0 0 CONF:0 BB SIZE:0
TAG:0 FORMAT:1 ENTANGLED_ADDRESSES:0 CONF:0 0 CONF:0 0 CONF:0 0 CONF:0 0 CONF:0 0 CONF:0 BB SIZE:0
TAG:0 FORMAT:1 ENTANGLED_ADDRESSES:0 CONF:0 0 CONF:0 0 CONF:0 0 CONF:0 0 CONF:0 0 CONF:0 BB SIZE:0
TAG:0 FORMAT:1 ENTANGLED_ADDRESSES:0 CONF:0 0 CONF:0 0 CONF:0 0 CONF:0 0 CONF:0 0 CONF:0 BB SIZE:0
TAG:0 FORMAT:1 ENTANGLED_ADDRESSES:0 CONF:0 0 CONF:0 0 CONF:0 0 CONF:0 0 CONF:0 0 CONF:0 BB SIZE:0
TAG:0 FORMAT:1 ENTANGLED_ADDRESSES:0 CONF:0 0 CONF:0 0 CONF:0 0 CONF:0 0 CONF:0 0 CONF:0 BB SIZE:0
TAG:0 FORMAT:1 ENTANGLED_ADDRESSES:0 CONF:0 0 CONF:0 0 CONF:0 0 CONF:0 0 CONF:0 0 CONF:0 BB SIZE:0
TAG:0 FORMAT:1 ENTANGLED_ADDRESSES:0 CONF:0 0 CONF:0 0 CONF:0 0 CONF:0 0 CONF:0 0 CONF:0 BB SIZE:0
TAG:0 FORMAT:1 ENTANGLED_ADDRESSES:0 CONF:0 0 CONF:0 0 CONF:0 0 CONF:0 0 CONF:0 0 CONF:0 BB SIZE:0
TAG:0 FORMAT:1 ENTANGLED_ADDRESSES:0 CONF:0 0 CONF:0 0 CONF:0 0 CONF:0 0 CONF:0 0 CONF:0 BB SIZE:0
TAG:0 FORMAT:1 ENTANGLED_ADDRESSES:0 CONF:0 0 CONF:0 0 CONF:0 0 CONF:0 0 CONF:0 0 CONF:0 BB SIZE:0
TAG:0 FORMAT:1 ENTANGLED_ADDRESSES:0 CONF:0 0 CONF:0 0 CONF:0 0 CONF:0 0 CONF:0 0 CONF:0 BB SIZE:0
TAG:0 FORMAT:1 ENTANGLED_ADDRESSES:0 CONF:0 0 CONF:0 0 CONF:0 0 CONF:0 0 CONF:0 0 CONF:0 BB SIZE:0
TAG:0 FORMAT:1 ENTANGLED_ADDRESSES:0 CONF:0 0 CONF:0 0 CONF:0 0 CONF:0 0 CONF:0 0 CONF:0 BB SIZE:0
SET:33
TAG:e1 FORMAT:1 ENTANGLED_ADDRESSES:0 CONF:0 0 CONF:0 0 CONF:0 0 CONF:0 0 CONF:0 0 CONF:0 BB SIZE:3
TAG:1ed FORMAT:3 ENTANGLED_ADDRESSES:77b5 CONF:2 7034 CONF:3 7034 CONF:0 0 CONF:0 0 CONF:0 0 CONF:0 BB SIZE:0
TAG:fd FORMAT:1 ENTANGLED_ADDRESSES:0 CONF:0 0 CONF:0 0 CONF:0 0 CONF:0 0 CONF:0 0 CONF:0 BB SIZE:a
TAG:0 FORMAT:1 ENTANGLED_ADDRESSES:0 CONF:0 0 CONF:0 0 CONF:0 0 CONF:0 0 CONF:0 0 CONF:0 BB SIZE:0
TAG:0 FORMAT:1 ENTANGLED_ADDRESSES:0 CONF:0 0 CONF:0 0 CONF:0 0 CONF:0 0 CONF:0 0 CONF:0 BB SIZE:0
TAG:0 FORMAT:1 ENTANGLED_ADDRESSES:0 CONF:0 0 CONF:0 0 CONF:0 0 CONF:0 0 CONF:0 0 CONF:0 BB SIZE:0
TAG:0 FORMAT:1 ENTANGLED_ADDRESSES:0 CONF:0 0 CONF:0 0 CONF:0 0 CONF:0 0 CONF:0 0 CONF:0 BB SIZE:0
TAG:0 FORMAT:1 ENTANGLED_ADDRESSES:0 CONF:0 0 CONF:0 0 CONF:0 0 CONF:0 0 CONF:0 0 CONF:0 BB SIZE:0
TAG:0 FORMAT:1 ENTANGLED_ADDRESSES:0 CONF:0 0 CONF:0 0 CONF:0 0 CONF:0 0 CONF:0 0 CONF:0 BB SIZE:0
TAG:0 FORMAT:1 ENTANGLED_ADDRESSES:0 CONF:0 0 CONF:0 0 CONF:0 0 CONF:0 0 CONF:0 0 CONF:0 BB SIZE:0
TAG:0 FORMAT:1 ENTANGLED_ADDRESSES:0 CONF:0 0 CONF:0 0 CONF:0 0 CONF:0 0 CONF:0 0 CONF:0 BB SIZE:0
TAG:0 FORMAT:1 ENTANGLED_ADDRESSES:0 CONF:0 0 CONF:0 0 CONF:0 0 CONF:0 0 CONF:0 0 CONF:0 BB SIZE:0
TAG:0 FORMAT:1 ENTANGLED_ADDRESSES:0 CONF:0 0 CONF:0 0 CONF:0 0 CONF:0 0 CONF:0 0 CONF:0 BB SIZE:0
TAG:0 FORMAT:1 ENTANGLED_ADDRESSES:0 CONF:0 0 CONF:0 0 CONF:0 0 CONF:0 0 CONF:0 0 CONF:0 BB SIZE:0
TAG:0 FORMAT:1 ENTANGLED_ADDRESSES:0 CONF:0 0 CONF:0 0 CONF:0 0 CONF:0 0 CONF:0 0 CONF:0 BB SIZE:0
TAG:0 FORMAT:1 ENTANGLED_ADDRESSES:0 CONF:0 0 CONF:0 0 CONF:0 0 CONF:0 0 CONF:0 0 CONF:0 BB SIZE:0
SET:34
TAG:85 FORMAT:6 ENTANGLED_ADDRESSES:c2 CONF:2 0 CONF:0 0 CONF:0 0 CONF:0 0 CONF:0 0 CONF:0 BB SIZE:4
TAG:fd FORMAT:3 ENTANGLED_ADDRESSES:ef9 CONF:3 efc CONF:3 0 CONF:0 0 CONF:0 0 CONF:0 0 CONF:0 BB SIZE:b
TAG:fa FORMAT:3 ENTANGLED_ADDRESSES:15470 CONF:3 dc33 CONF:2 15477 CONF:3 0 CONF:0 0 CONF:0 0 CONF:0 BB SIZE:2
TAG:9a FORMAT:3 ENTANGLED_ADDRESSES:f9f6 CONF:0 3b26 CONF:2 0 CONF:0 0 CONF:0 0 CONF:0 0 CONF:0 BB SIZE:0
TAG:1e3 FORMAT:5 ENTANGLED_ADDRESSES:d9 CONF:2 d4 CONF:0 1d3 CONF:3 dd CONF:2 d7 CONF:2 0 CONF:0 BB SIZE:1
TAG:c8 FORMAT:1 ENTANGLED_ADDRESSES:0 CONF:0 0 CONF:0 0 CONF:0 0 CONF:0 0 CONF:0 0 CONF:0 BB SIZE:c
TAG:b2 FORMAT:5 ENTANGLED_ADDRESSES:d1 CONF:3 168 CONF:3 3b1 CONF:3 0 CONF:0 0 CONF:0 0 CONF:0 BB SIZE:1
TAG:0 FORMAT:1 ENTANGLED_ADDRESSES:0 CONF:0 0 CONF:0 0 CONF:0 0 CONF:0 0 CONF:0 0 CONF:0 BB SIZE:0
TAG:0 FORMAT:1 ENTANGLED_ADDRESSES:0 CONF:0 0 CONF:0 0 CONF:0 0 CONF:0 0 CONF:0 0 CONF:0 BB SIZE:0
TAG:0 FORMAT:1 ENTANGLED_ADDRESSES:0 CONF:0 0 CONF:0 0 CONF:0 0 CONF:0 0 CONF:0 0 CONF:0 BB SIZE:0
TAG:0 FORMAT:1 ENTANGLED_ADDRESSES:0 CONF:0 0 CONF:0 0 CONF:0 0 CONF:0 0 CONF:0 0 CONF:0 BB SIZE:0
TAG:0 FORMAT:1 ENTANGLED_ADDRESSES:0 CONF:0 0 CONF:0 0 CONF:0 0 CONF:0 0 CONF:0 0 CONF:0 BB SIZE:0
TAG:0 FORMAT:1 ENTANGLED_ADDRESSES:0 CONF:0 0 CONF:0 0 CONF:0 0 CONF:0 0 CONF:0 0 CONF:0 BB SIZE:0
TAG:0 FORMAT:1 ENTANGLED_ADDRESSES:0 CONF:0 0 CONF:0 0 CONF:0 0 CONF:0 0 CONF:0 0 CONF:0 BB SIZE:0
TAG:0 FORMAT:1 ENTANGLED_ADDRESSES:0 CONF:0 0 CONF:0 0 CONF:0 0 CONF:0 0 CONF:0 0 CONF:0 BB SIZE:0
TAG:0 FORMAT:1 ENTANGLED_ADDRESSES:0 CONF:0 0 CONF:0 0 CONF:0 0 CONF:0 0 CONF:0 0 CONF:0 BB SIZE:0
SET:35
TAG:9b FORMAT:3 ENTANGLED_ADDRESSES:e471 CONF:3 4f8a CONF:3 1fa2 CONF:3 0 CONF:0 0 CONF:0 0 CONF:0 BB SIZE:3
TAG:e8 FORMAT:3 ENTANGLED_ADDRESSES:f4cf CONF:1 f1b CONF:3 0 CONF:0 0 CONF:0 0 CONF:0 0 CONF:0 BB SIZE:2
TAG:1ed FORMAT:3 ENTANGLED_ADDRESSES:30b2 CONF:2 23f4d CONF:2 277ea CONF:2 0 CONF:0 0 CONF:0 0 CONF:0 BB SIZE:2
TAG:0 FORMAT:1 ENTANGLED_ADDRESSES:0 CONF:0 0 CONF:0 0 CONF:0 0 CONF:0 0 CONF:0 0 CONF:0 BB SIZE:0
TAG:0 FORMAT:1 ENTANGLED_ADDRESSES:0 CONF:0 0 CONF:0 0 CONF:0 0 CONF:0 0 CONF:0 0 CONF:0 BB SIZE:0
TAG:0 FORMAT:1 ENTANGLED_ADDRESSES:0 CONF:0 0 CONF:0 0 CONF:0 0 CONF:0 0 CONF:0 0 CONF:0 BB SIZE:0
TAG:0 FORMAT:1 ENTANGLED_ADDRESSES:0 CONF:0 0 CONF:0 0 CONF:0 0 CONF:0 0 CONF:0 0 CONF:0 BB SIZE:0
TAG:0 FORMAT:1 ENTANGLED_ADDRESSES:0 CONF:0 0 CONF:0 0 CONF:0 0 CONF:0 0 CONF:0 0 CONF:0 BB SIZE:0
TAG:0 FORMAT:1 ENTANGLED_ADDRESSES:0 CONF:0 0 CONF:0 0 CONF:0 0 CONF:0 0 CONF:0 0 CONF:0 BB SIZE:0
TAG:0 FORMAT:1 ENTANGLED_ADDRESSES:0 CONF:0 0 CONF:0 0 CONF:0 0 CONF:0 0 CONF:0 0 CONF:0 BB SIZE:0
TAG:0 FORMAT:1 ENTANGLED_ADDRESSES:0 CONF:0 0 CONF:0 0 CONF:0 0 CONF:0 0 CONF:0 0 CONF:0 BB SIZE:0
TAG:0 FORMAT:1 ENTANGLED_ADDRESSES:0 CONF:0 0 CONF:0 0 CONF:0 0 CONF:0 0 CONF:0 0 CONF:0 BB SIZE:0
TAG:0 FORMAT:1 ENTANGLED_ADDRESSES:0 CONF:0 0 CONF:0 0 CONF:0 0 CONF:0 0 CONF:0 0 CONF:0 BB SIZE:0
TAG:0 FORMAT:1 ENTANGLED_ADDRESSES:0 CONF:0 0 CONF:0 0 CONF:0 0 CONF:0 0 CONF:0 0 CONF:0 BB SIZE:0
TAG:0 FORMAT:1 ENTANGLED_ADDRESSES:0 CONF:0 0 CONF:0 0 CONF:0 0 CONF:0 0 CONF:0 0 CONF:0 BB SIZE:0
TAG:0 FORMAT:1 ENTANGLED_ADDRESSES:0 CONF:0 0 CONF:0 0 CONF:0 0 CONF:0 0 CONF:0 0 CONF:0 BB SIZE:0
SET:36
TAG:e1 FORMAT:3 ENTANGLED_ADDRESSES:160e0 CONF:3 8806 CONF:3 ae21 CONF:3 0 CONF:0 0 CONF:0 0 CONF:0 BB SIZE:8
TAG:285 FORMAT:3 ENTANGLED_ADDRESSES:ac82 CONF:2 91cc CONF:2 0 CONF:0 0 CONF:0 0 CONF:0 0 CONF:0 BB SIZE:1
TAG:c8 FORMAT:2 ENTANGLED_ADDRESSES:ecc4f7a CONF:3 edd0d0c CONF:3 0 CONF:0 0 CONF:0 0 CONF:0 0 CONF:0 BB SIZE:2
TAG:0 FORMAT:1 ENTANGLED_ADDRESSES:0 CONF:0 0 CONF:0 0 CONF:0 0 CONF:0 0 CONF:0 0 CONF:0 BB SIZE:0
TAG:0 FORMAT:1 ENTANGLED_ADDRESSES:0 CONF:0 0 CONF:0 0 CONF:0 0 CONF:0 0 CONF:0 0 CONF:0 BB SIZE:0
TAG:0 FORMAT:1 ENTANGLED_ADDRESSES:0 CONF:0 0 CONF:0 0 CONF:0 0 CONF:0 0 CONF:0 0 CONF:0 BB SIZE:0
TAG:0 FORMAT:1 ENTANGLED_ADDRESSES:0 CONF:0 0 CONF:0 0 CONF:0 0 CONF:0 0 CONF:0 0 CONF:0 BB SIZE:0
TAG:0 FORMAT:1 ENTANGLED_ADDRESSES:0 CONF:0 0 CONF:0 0 CONF:0 0 CONF:0 0 CONF:0 0 CONF:0 BB SIZE:0
TAG:0 FORMAT:1 ENTANGLED_ADDRESSES:0 CONF:0 0 CONF:0 0 CONF:0 0 CONF:0 0 CONF:0 0 CONF:0 BB SIZE:0
TAG:0 FORMAT:1 ENTANGLED_ADDRESSES:0 CONF:0 0 CONF:0 0 CONF:0 0 CONF:0 0 CONF:0 0 CONF:0 BB SIZE:0
TAG:0 FORMAT:1 ENTANGLED_ADDRESSES:0 CONF:0 0 CONF:0 0 CONF:0 0 CONF:0 0 CONF:0 0 CONF:0 BB SIZE:0
TAG:0 FORMAT:1 ENTANGLED_ADDRESSES:0 CONF:0 0 CONF:0 0 CONF:0 0 CONF:0 0 CONF:0 0 CONF:0 BB SIZE:0
TAG:0 FORMAT:1 ENTANGLED_ADDRESSES:0 CONF:0 0 CONF:0 0 CONF:0 0 CONF:0 0 CONF:0 0 CONF:0 BB SIZE:0
TAG:0 FORMAT:1 ENTANGLED_ADDRESSES:0 CONF:0 0 CONF:0 0 CONF:0 0 CONF:0 0 CONF:0 0 CONF:0 BB SIZE:0
TAG:0 FORMAT:1 ENTANGLED_ADDRESSES:0 CONF:0 0 CONF:0 0 CONF:0 0 CONF:0 0 CONF:0 0 CONF:0 BB SIZE:0
TAG:0 FORMAT:1 ENTANGLED_ADDRESSES:0 CONF:0 0 CONF:0 0 CONF:0 0 CONF:0 0 CONF:0 0 CONF:0 BB SIZE:0
SET:37
TAG:e1 FORMAT:3 ENTANGLED_ADDRESSES:592b CONF:3 1cbb CONF:3 ec38 CONF:3 0 CONF:0 0 CONF:0 0 CONF:0 BB SIZE:7
TAG:d5 FORMAT:3 ENTANGLED_ADDRESSES:b581 CONF:2 3329 CONF:2 0 CONF:0 0 CONF:0 0 CONF:0 0 CONF:0 BB SIZE:1
TAG:ec FORMAT:3 ENTANGLED_ADDRESSES:efc CONF:3 feb0 CONF:3 feb7 CONF:3 0 CONF:0 0 CONF:0 0 CONF:0 BB SIZE:5
TAG:253 FORMAT:2 ENTANGLED_ADDRESSES:edb5ca9 CONF:2 edfc789 CONF:1 0 CONF:0 0 CONF:0 0 CONF:0 0 CONF:0 BB SIZE:1
TAG:e2 FORMAT:3 ENTANGLED_ADDRESSES:3eb2 CONF:3 f7d0 CONF:3 f7ce CONF:3 fd01 CONF:0 0 CONF:0 0 CONF:0 BB SIZE:4
TAG:9b FORMAT:3 ENTANGLED_ADDRESSES:4578 CONF:2 da29 CONF:2 356d CONF:2 0 CONF:0 0 CONF:0 0 CONF:0 BB SIZE:7
TAG:2d2 FORMAT:3 ENTANGLED_ADDRESSES:3733 CONF:3 3775 CONF:0 5044 CONF:0 0 CONF:0 0 CONF:0 0 CONF:0 BB SIZE:0
TAG:cf FORMAT:3 ENTANGLED_ADDRESSES:f5db CONF:1 1fa2 CONF:3 9bb7 CONF:2 0 CONF:0 0 CONF:0 0 CONF:0 BB SIZE:1
TAG:1c9 FORMAT:2 ENTANGLED_ADDRESSES:edcb8e0 CONF:3 3a6c4 CONF:0 edbcde6 CONF:3 0 CONF:0 0 CONF:0 0 CONF:0 BB SIZE:2
TAG:0 FORMAT:1 ENTANGLED_ADDRESSES:0 CONF:0 0 CONF:0 0 CONF:0 0 CONF:0 0 CONF:0 0 CONF:0 BB SIZE:0
TAG:0 FORMAT:1 ENTANGLED_ADDRESSES:0 CONF:0 0 CONF:0 0 CONF:0 0 CONF:0 0 CONF:0 0 CONF:0 BB SIZE:0
TAG:0 FORMAT:1 ENTANGLED_ADDRESSES:0 CONF:0 0 CONF:0 0 CONF:0 0 CONF:0 0 CONF:0 0 CONF:0 BB SIZE:0
TAG:0 FORMAT:1 ENTANGLED_ADDRESSES:0 CONF:0 0 CONF:0 0 CONF:0 0 CONF:0 0 CONF:0 0 CONF:0 BB SIZE:0
TAG:0 FORMAT:1 ENTANGLED_ADDRESSES:0 CONF:0 0 CONF:0 0 CONF:0 0 CONF:0 0 CONF:0 0 CONF:0 BB SIZE:0
TAG:0 FORMAT:1 ENTANGLED_ADDRESSES:0 CONF:0 0 CONF:0 0 CONF:0 0 CONF:0 0 CONF:0 0 CONF:0 BB SIZE:0
TAG:0 FORMAT:1 ENTANGLED_ADDRESSES:0 CONF:0 0 CONF:0 0 CONF:0 0 CONF:0 0 CONF:0 0 CONF:0 BB SIZE:0
SET:38
TAG:2d2 FORMAT:3 ENTANGLED_ADDRESSES:3c789 CONF:2 3733 CONF:2 10d63 CONF:3 0 CONF:0 0 CONF:0 0 CONF:0 BB SIZE:2
TAG:1d0 FORMAT:3 ENTANGLED_ADDRESSES:25444 CONF:3 25969 CONF:3 0 CONF:0 0 CONF:0 0 CONF:0 0 CONF:0 BB SIZE:2
TAG:253 FORMAT:3 ENTANGLED_ADDRESSES:10d13 CONF:0 bc05 CONF:1 bc09 CONF:3 0 CONF:0 0 CONF:0 0 CONF:0 BB SIZE:2
TAG:2fa FORMAT:2 ENTANGLED_ADDRESSES:edbc9ec CONF:3 edfc789 CONF:3 0 CONF:0 0 CONF:0 0 CONF:0 0 CONF:0 BB SIZE:1
TAG:9a FORMAT:3 ENTANGLED_ADDRESSES:3b41 CONF:0 3b26 CONF:3 f9f6 CONF:3 35 CONF:0 0 CONF:0 0 CONF:0 BB SIZE:3
TAG:c8 FORMAT:1 ENTANGLED_ADDRESSES:0 CONF:0 0 CONF:0 0 CONF:0 0 CONF:0 0 CONF:0 0 CONF:0 BB SIZE:3
TAG:2a2 FORMAT:3 ENTANGLED_ADDRESSES:f72c CONF:3 1ad6 CONF:3 f733 CONF:3 0 CONF:0 0 CONF:0 0 CONF:0 BB SIZE:2
TAG:d7 FORMAT:3 ENTANGLED_ADDRESSES:15d20 CONF:3 8844 CONF:3 8873 CONF:3 0 CONF:0 0 CONF:0 0 CONF:0 BB SIZE:0
TAG:0 FORMAT:1 ENTANGLED_ADDRESSES:0 CONF:0 0 CONF:0 0 CONF:0 0 CONF:0 0 CONF:0 0 CONF:0 BB SIZE:0
TAG:0 FORMAT:1 ENTANGLED_ADDRESSES:0 CONF:0 0 CONF:0 0 CONF:0 0 CONF:0 0 CONF:0 0 CONF:0 BB SIZE:0
TAG:0 FORMAT:1 ENTANGLED_ADDRESSES:0 CONF:0 0 CONF:0 0 CONF:0 0 CONF:0 0 CONF:0 0 CONF:0 BB SIZE:0
TAG:0 FORMAT:1 ENTANGLED_ADDRESSES:0 CONF:0 0 CONF:0 0 CONF:0 0 CONF:0 0 CONF:0 0 CONF:0 BB SIZE:0
TAG:0 FORMAT:1 ENTANGLED_ADDRESSES:0 CONF:0 0 CONF:0 0 CONF:0 0 CONF:0 0 CONF:0 0 CONF:0 BB SIZE:0
TAG:0 FORMAT:1 ENTANGLED_ADDRESSES:0 CONF:0 0 CONF:0 0 CONF:0 0 CONF:0 0 CONF:0 0 CONF:0 BB SIZE:0
TAG:0 FORMAT:1 ENTANGLED_ADDRESSES:0 CONF:0 0 CONF:0 0 CONF:0 0 CONF:0 0 CONF:0 0 CONF:0 BB SIZE:0
TAG:0 FORMAT:1 ENTANGLED_ADDRESSES:0 CONF:0 0 CONF:0 0 CONF:0 0 CONF:0 0 CONF:0 0 CONF:0 BB SIZE:0
SET:39
TAG:2d2 FORMAT:3 ENTANGLED_ADDRESSES:5044 CONF:0 3775 CONF:0 5045 CONF:3 0 CONF:0 0 CONF:0 0 CONF:0 BB SIZE:1
TAG:e1 FORMAT:3 ENTANGLED_ADDRESSES:16a32 CONF:3 16a36 CONF:3 b4ea CONF:3 0 CONF:0 0 CONF:0 0 CONF:0 BB SIZE:9
TAG:af FORMAT:3 ENTANGLED_ADDRESSES:11cf0 CONF:0 0 CONF:0 0 CONF:0 0 CONF:0 0 CONF:0 0 CONF:0 BB SIZE:2
TAG:1e1 FORMAT:3 ENTANGLED_ADDRESSES:254ae CONF:1 254ad CONF:0 7040 CONF:0 0 CONF:0 0 CONF:0 0 CONF:0 BB SIZE:2
TAG:fd FORMAT:1 ENTANGLED_ADDRESSES:0 CONF:0 0 CONF:0 0 CONF:0 0 CONF:0 0 CONF:0 0 CONF:0 BB SIZE:9
TAG:1fb FORMAT:4 ENTANGLED_ADDRESSES:9fb CONF:3 9f7 CONF:2 0 CONF:0 0 CONF:0 0 CONF:0 0 CONF:0 BB SIZE:3
TAG:cf FORMAT:3 ENTANGLED_ADDRESSES:2ae8 CONF:3 9bb7 CONF:3 2c27 CONF:0 0 CONF:0 0 CONF:0 0 CONF:0 BB SIZE:3
TAG:bd FORMAT:1 ENTANGLED_ADDRESSES:0 CONF:0 0 CONF:0 0 CONF:0 0 CONF:0 0 CONF:0 0 CONF:0 BB SIZE:4
TAG:9a FORMAT:3 ENTANGLED_ADDRESSES:f9f6 CONF:2 0 CONF:0 0 CONF:0 0 CONF:0 0 CONF:0 0 CONF:0 BB SIZE:0
TAG:1c9 FORMAT:2 ENTANGLED_ADDRESSES:edcf730 CONF:2 edcf733 CONF:3 0 CONF:0 0 CONF:0 0 CONF:0 0 CONF:0 BB SIZE:1
TAG:0 FORMAT:1 ENTANGLED_ADDRESSES:0 CONF:0 0 CONF:0 0 CONF:0 0 CONF:0 0 CONF:0 0 CONF:0 BB SIZE:0
TAG:0 FORMAT:1 ENTANGLED_ADDRESSES:0 CONF:0 0 CONF:0 0 CONF:0 0 CONF:0 0 CONF:0 0 CONF:0 BB SIZE:0
TAG:0 FORMAT:1 ENTANGLED_ADDRESSES:0 CONF:0 0 CONF:0 0 CONF:0 0 CONF:0 0 CONF:0 0 CONF:0 BB SIZE:0
TAG:0 FORMAT:1 ENTANGLED_ADDRESSES:0 CONF:0 0 CONF:0 0 CONF:0 0 CONF:0 0 CONF:0 0 CONF:0 BB SIZE:0
TAG:0 FORMAT:1 ENTANGLED_ADDRESSES:0 CONF:0 0 CONF:0 0 CONF:0 0 CONF:0 0 CONF:0 0 CONF:0 BB SIZE:0
TAG:0 FORMAT:1 ENTANGLED_ADDRESSES:0 CONF:0 0 CONF:0 0 CONF:0 0 CONF:0 0 CONF:0 0 CONF:0 BB SIZE:0
SET:40
TAG:e1 FORMAT:3 ENTANGLED_ADDRESSES:8f55 CONF:2 db1c CONF:3 b35c CONF:3 0 CONF:0 0 CONF:0 0 CONF:0 BB SIZE:a
TAG:3a FORMAT:3 ENTANGLED_ADDRESSES:14d14 CONF:1 14d12 CONF:0 40fc CONF:3 0 CONF:0 0 CONF:0 0 CONF:0 BB SIZE:2
TAG:253 FORMAT:3 ENTANGLED_ADDRESSES:bc05 CONF:3 bb52 CONF:3 b34 CONF:0 10b33 CONF:3 0 CONF:0 0 CONF:0 BB SIZE:3
TAG:2d2 FORMAT:3 ENTANGLED_ADDRESSES:5042 CONF:0 3c789 CONF:2 5042 CONF:0 0 CONF:0 0 CONF:0 0 CONF:0 BB SIZE:0
TAG:282 FORMAT:2 ENTANGLED_ADDRESSES:edba6bc CONF:3 f730 CONF:0 edc8093 CONF:2 0 CONF:0 0 CONF:0 0 CONF:0 BB SIZE:2
TAG:fd FORMAT:1 ENTANGLED_ADDRESSES:0 CONF:0 0 CONF:0 0 CONF:0 0 CONF:0 0 CONF:0 0 CONF:0 BB SIZE:1
TAG:0 FORMAT:1 ENTANGLED_ADDRESSES:0 CONF:0 0 CONF:0 0 CONF:0 0 CONF:0 0 CONF:0 0 CONF:0 BB SIZE:0
TAG:0 FORMAT:1 ENTANGLED_ADDRESSES:0 CONF:0 0 CONF:0 0 CONF:0 0 CONF:0 0 CONF:0 0 CONF:0 BB SIZE:0
TAG:0 FORMAT:1 ENTANGLED_ADDRESSES:0 CONF:0 0 CONF:0 0 CONF:0 0 CONF:0 0 CONF:0 0 CONF:0 BB SIZE:0
TAG:0 FORMAT:1 ENTANGLED_ADDRESSES:0 CONF:0 0 CONF:0 0 CONF:0 0 CONF:0 0 CONF:0 0 CONF:0 BB SIZE:0
TAG:0 FORMAT:1 ENTANGLED_ADDRESSES:0 CONF:0 0 CONF:0 0 CONF:0 0 CONF:0 0 CONF:0 0 CONF:0 BB SIZE:0
TAG:0 FORMAT:1 ENTANGLED_ADDRESSES:0 CONF:0 0 CONF:0 0 CONF:0 0 CONF:0 0 CONF:0 0 CONF:0 BB SIZE:0
TAG:0 FORMAT:1 ENTANGLED_ADDRESSES:0 CONF:0 0 CONF:0 0 CONF:0 0 CONF:0 0 CONF:0 0 CONF:0 BB SIZE:0
TAG:0 FORMAT:1 ENTANGLED_ADDRESSES:0 CONF:0 0 CONF:0 0 CONF:0 0 CONF:0 0 CONF:0 0 CONF:0 BB SIZE:0
TAG:0 FORMAT:1 ENTANGLED_ADDRESSES:0 CONF:0 0 CONF:0 0 CONF:0 0 CONF:0 0 CONF:0 0 CONF:0 BB SIZE:0
TAG:0 FORMAT:1 ENTANGLED_ADDRESSES:0 CONF:0 0 CONF:0 0 CONF:0 0 CONF:0 0 CONF:0 0 CONF:0 BB SIZE:0
SET:41
TAG:ea FORMAT:3 ENTANGLED_ADDRESSES:9602 CONF:2 13b45 CONF:0 15c0f CONF:0 0 CONF:0 0 CONF:0 0 CONF:0 BB SIZE:6
TAG:f3 FORMAT:3 ENTANGLED_ADDRESSES:18f37 CONF:1 18f24 CONF:2 0 CONF:0 0 CONF:0 0 CONF:0 0 CONF:0 BB SIZE:1
TAG:29c FORMAT:2 ENTANGLED_ADDRESSES:edbc9fb CONF:2 edcabeb CONF:2 0 CONF:0 0 CONF:0 0 CONF:0 0 CONF:0 BB SIZE:1
TAG:2e6 FORMAT:3 ENTANGLED_ADDRESSES:80e4 CONF:3 807e CONF:3 8080 CONF:2 0 CONF:0 0 CONF:0 0 CONF:0 BB SIZE:2
TAG:0 FORMAT:1 ENTANGLED_ADDRESSES:0 CONF:0 0 CONF:0 0 CONF:0 0 CONF:0 0 CONF:0 0 CONF:0 BB SIZE:0
TAG:0 FORMAT:1 ENTANGLED_ADDRESSES:0 CONF:0 0 CONF:0 0 CONF:0 0 CONF:0 0 CONF:0 0 CONF:0 BB SIZE:0
TAG:0 FORMAT:1 ENTANGLED_ADDRESSES:0 CONF:0 0 CONF:0 0 CONF:0 0 CONF:0 0 CONF:0 0 CONF:0 BB SIZE:0
TAG:0 FORMAT:1 ENTANGLED_ADDRESSES:0 CONF:0 0 CONF:0 0 CONF:0 0 CONF:0 0 CONF:0 0 CONF:0 BB SIZE:0
TAG:0 FORMAT:1 ENTANGLED_ADDRESSES:0 CONF:0 0 CONF:0 0 CONF:0 0 CONF:0 0 CONF:0 0 CONF:0 BB SIZE:0
TAG:0 FORMAT:1 ENTANGLED_ADDRESSES:0 CONF:0 0 CONF:0 0 CONF:0 0 CONF:0 0 CONF:0 0 CONF:0 BB SIZE:0
TAG:0 FORMAT:1 ENTANGLED_ADDRESSES:0 CONF:0 0 CONF:0 0 CONF:0 0 CONF:0 0 CONF:0 0 CONF:0 BB SIZE:0
TAG:0 FORMAT:1 ENTANGLED_ADDRESSES:0 CONF:0 0 CONF:0 0 CONF:0 0 CONF:0 0 CONF:0 0 CONF:0 BB SIZE:0
TAG:0 FORMAT:1 ENTANGLED_ADDRESSES:0 CONF:0 0 CONF:0 0 CONF:0 0 CONF:0 0 CONF:0 0 CONF:0 BB SIZE:0
TAG:0 FORMAT:1 ENTANGLED_ADDRESSES:0 CONF:0 0 CONF:0 0 CONF:0 0 CONF:0 0 CONF:0 0 CONF:0 BB SIZE:0
TAG:0 FORMAT:1 ENTANGLED_ADDRESSES:0 CONF:0 0 CONF:0 0 CONF:0 0 CONF:0 0 CONF:0 0 CONF:0 BB SIZE:0
TAG:0 FORMAT:1 ENTANGLED_ADDRESSES:0 CONF:0 0 CONF:0 0 CONF:0 0 CONF:0 0 CONF:0 0 CONF:0 BB SIZE:0
SET:42
TAG:e1 FORMAT:3 ENTANGLED_ADDRESSES:a008 CONF:2 4950 CONF:3 8f52 CONF:3 0 CONF:0 0 CONF:0 0 CONF:0 BB SIZE:3
TAG:d7 FORMAT:3 ENTANGLED_ADDRESSES:79b9 CONF:0 8878 CONF:3 27766 CONF:2 0 CONF:0 0 CONF:0 0 CONF:0 BB SIZE:1
TAG:3f FORMAT:2 ENTANGLED_ADDRESSES:edcba33 CONF:3 e022 CONF:0 ecce01b CONF:3 0 CONF:0 0 CONF:0 0 CONF:0 BB SIZE:2
TAG:e8 FORMAT:3 ENTANGLED_ADDRESSES:ed5 CONF:3 0 CONF:0 0 CONF:0 0 CONF:0 0 CONF:0 0 CONF:0 BB SIZE:1
TAG:2bf FORMAT:3 ENTANGLED_ADDRESSES:3891b CONF:2 0 CONF:0 0 CONF:0 0 CONF:0 0 CONF:0 0 CONF:0 BB SIZE:0
TAG:2e6 FORMAT:3 ENTANGLED_ADDRESSES:a235 CONF:3 0 CONF:0 0 CONF:0 0 CONF:0 0 CONF:0 0 CONF:0 BB SIZE:1
TAG:0 FORMAT:1 ENTANGLED_ADDRESSES:0 CONF:0 0 CONF:0 0 CONF:0 0 CONF:0 0 CONF:0 0 CONF:0 BB SIZE:0
TAG:0 FORMAT:1 ENTANGLED_ADDRESSES:0 CONF:0 0 CONF:0 0 CONF:0 0 CONF:0 0 CONF:0 0 CONF:0 BB SIZE:0
TAG:0 FORMAT:1 ENTANGLED_ADDRESSES:0 CONF:0 0 CONF:0 0 CONF:0 0 CONF:0 0 CONF:0 0 CONF:0 BB SIZE:0
TAG:0 FORMAT:1 ENTANGLED_ADDRESSES:0 CONF:0 0 CONF:0 0 CONF:0 0 CONF:0 0 CONF:0 0 CONF:0 BB SIZE:0
TAG:0 FORMAT:1 ENTANGLED_ADDRESSES:0 CONF:0 0 CONF:0 0 CONF:0 0 CONF:0 0 CONF:0 0 CONF:0 BB SIZE:0
TAG:0 FORMAT:1 ENTANGLED_ADDRESSES:0 CONF:0 0 CONF:0 0 CONF:0 0 CONF:0 0 CONF:0 0 CONF:0 BB SIZE:0
TAG:0 FORMAT:1 ENTANGLED_ADDRESSES:0 CONF:0 0 CONF:0 0 CONF:0 0 CONF:0 0 CONF:0 0 CONF:0 BB SIZE:0
TAG:0 FORMAT:1 ENTANGLED_ADDRESSES:0 CONF:0 0 CONF:0 0 CONF:0 0 CONF:0 0 CONF:0 0 CONF:0 BB SIZE:0
TAG:0 FORMAT:1 ENTANGLED_ADDRESSES:0 CONF:0 0 CONF:0 0 CONF:0 0 CONF:0 0 CONF:0 0 CONF:0 BB SIZE:0
TAG:0 FORMAT:1 ENTANGLED_ADDRESSES:0 CONF:0 0 CONF:0 0 CONF:0 0 CONF:0 0 CONF:0 0 CONF:0 BB SIZE:0
SET:43
TAG:da FORMAT:2 ENTANGLED_ADDRESSES:edce107 CONF:3 edce101 CONF:2 ecc1533 CONF:0 0 CONF:0 0 CONF:0 0 CONF:0 BB SIZE:3
TAG:e2 FORMAT:3 ENTANGLED_ADDRESSES:f7ea CONF:2 79c3 CONF:3 3ea5 CONF:3 0 CONF:0 0 CONF:0 0 CONF:0 BB SIZE:3
TAG:e8 FORMAT:3 ENTANGLED_ADDRESSES:9094 CONF:2 ebe CONF:3 12876 CONF:2 0 CONF:0 0 CONF:0 0 CONF:0 BB SIZE:2
TAG:2bf FORMAT:5 ENTANGLED_ADDRESSES:1c5 CONF:0 219 CONF:2 232 CONF:2 0 CONF:0 0 CONF:0 0 CONF:0 BB SIZE:1
TAG:b2 FORMAT:5 ENTANGLED_ADDRESSES:39c CONF:1 13c CONF:3 0 CONF:0 0 CONF:0 0 CONF:0 0 CONF:0 BB SIZE:0
TAG:2e6 FORMAT:2 ENTANGLED_ADDRESSES:edb7d84 CONF:3 edbdef7 CONF:3 0 CONF:0 0 CONF:0 0 CONF:0 0 CONF:0 BB SIZE:0
TAG:0 FORMAT:1 ENTANGLED_ADDRESSES:0 CONF:0 0 CONF:0 0 CONF:0 0 CONF:0 0 CONF:0 0 CONF:0 BB SIZE:0
TAG:0 FORMAT:1 ENTANGLED_ADDRESSES:0 CONF:0 0 CONF:0 0 CONF:0 0 CONF:0 0 CONF:0 0 CONF:0 BB SIZE:0
TAG:0 FORMAT:1 ENTANGLED_ADDRESSES:0 CONF:0 0 CONF:0 0 CONF:0 0 CONF:0 0 CONF:0 0 CONF:0 BB SIZE:0
TAG:0 FORMAT:1 ENTANGLED_ADDRESSES:0 CONF:0 0 CONF:0 0 CONF:0 0 CONF:0 0 CONF:0 0 CONF:0 BB SIZE:0
TAG:0 FORMAT:1 ENTANGLED_ADDRESSES:0 CONF:0 0 CONF:0 0 CONF:0 0 CONF:0 0 CONF:0 0 CONF:0 BB SIZE:0
TAG:0 FORMAT:1 ENTANGLED_ADDRESSES:0 CONF:0 0 CONF:0 0 CONF:0 0 CONF:0 0 CONF:0 0 CONF:0 BB SIZE:0
TAG:0 FORMAT:1 ENTANGLED_ADDRESSES:0 CONF:0 0 CONF:0 0 CONF:0 0 CONF:0 0 CONF:0 0 CONF:0 BB SIZE:0
TAG:0 FORMAT:1 ENTANGLED_ADDRESSES:0 CONF:0 0 CONF:0 0 CONF:0 0 CONF:0 0 CONF:0 0 CONF:0 BB SIZE:0
TAG:0 FORMAT:1 ENTANGLED_ADDRESSES:0 CONF:0 0 CONF:0 0 CONF:0 0 CONF:0 0 CONF:0 0 CONF:0 BB SIZE:0
TAG:0 FORMAT:1 ENTANGLED_ADDRESSES:0 CONF:0 0 CONF:0 0 CONF:0 0 CONF:0 0 CONF:0 0 CONF:0 BB SIZE:0
SET:44
TAG:3f FORMAT:3 ENTANGLED_ADDRESSES:a4da CONF:3 9a59 CONF:3 1fa8 CONF:3 0 CONF:0 0 CONF:0 0 CONF:0 BB SIZE:2
TAG:2bf FORMAT:2 ENTANGLED_ADDRESSES:edcbbd7 CONF:2 edb5c9b CONF:2 0 CONF:0 0 CONF:0 0 CONF:0 0 CONF:0 BB SIZE:1
TAG:0 FORMAT:1 ENTANGLED_ADDRESSES:0 CONF:0 0 CONF:0 0 CONF:0 0 CONF:0 0 CONF:0 0 CONF:0 BB SIZE:0
TAG:0 FORMAT:1 ENTANGLED_ADDRESSES:0 CONF:0 0 CONF:0 0 CONF:0 0 CONF:0 0 CONF:0 0 CONF:0 BB SIZE:0
TAG:0 FORMAT:1 ENTANGLED_ADDRESSES:0 CONF:0 0 CONF:0 0 CONF:0 0 CONF:0 0 CONF:0 0 CONF:0 BB SIZE:0
TAG:0 FORMAT:1 ENTANGLED_ADDRESSES:0 CONF:0 0 CONF:0 0 CONF:0 0 CONF:0 0 CONF:0 0 CONF:0 BB SIZE:0
TAG:0 FORMAT:1 ENTANGLED_ADDRESSES:0 CONF:0 0 CONF:0 0 CONF:0 0 CONF:0 0 CONF:0 0 CONF:0 BB SIZE:0
TAG:0 FORMAT:1 ENTANGLED_ADDRESSES:0 CONF:0 0 CONF:0 0 CONF:0 0 CONF:0 0 CONF:0 0 CONF:0 BB SIZE:0
TAG:0 FORMAT:1 ENTANGLED_ADDRESSES:0 CONF:0 0 CONF:0 0 CONF:0 0 CONF:0 0 CONF:0 0 CONF:0 BB SIZE:0
TAG:0 FORMAT:1 ENTANGLED_ADDRESSES:0 CONF:0 0 CONF:0 0 CONF:0 0 CONF:0 0 CONF:0 0 CONF:0 BB SIZE:0
TAG:0 FORMAT:1 ENTANGLED_ADDRESSES:0 CONF:0 0 CONF:0 0 CONF:0 0 CONF:0 0 CONF:0 0 CONF:0 BB SIZE:0
TAG:0 FORMAT:1 ENTANGLED_ADDRESSES:0 CONF:0 0 CONF:0 0 CONF:0 0 CONF:0 0 CONF:0 0 CONF:0 BB SIZE:0
TAG:0 FORMAT:1 ENTANGLED_ADDRESSES:0 CONF:0 0 CONF:0 0 CONF:0 0 CONF:0 0 CONF:0 0 CONF:0 BB SIZE:0
TAG:0 FORMAT:1 ENTANGLED_ADDRESSES:0 CONF:0 0 CONF:0 0 CONF:0 0 CONF:0 0 CONF:0 0 CONF:0 BB SIZE:0
TAG:0 FORMAT:1 ENTANGLED_ADDRESSES:0 CONF:0 0 CONF:0 0 CONF:0 0 CONF:0 0 CONF:0 0 CONF:0 BB SIZE:0
TAG:0 FORMAT:1 ENTANGLED_ADDRESSES:0 CONF:0 0 CONF:0 0 CONF:0 0 CONF:0 0 CONF:0 0 CONF:0 BB SIZE:0
SET:45
TAG:c6 FORMAT:3 ENTANGLED_ADDRESSES:14003 CONF:1 12811 CONF:3 c73c CONF:1 0 CONF:0 0 CONF:0 0 CONF:0 BB SIZE:1
TAG:3f FORMAT:3 ENTANGLED_ADDRESSES:ff81 CONF:3 ffa2 CONF:1 a94f CONF:3 0 CONF:0 0 CONF:0 0 CONF:0 BB SIZE:2
TAG:da FORMAT:3 ENTANGLED_ADDRESSES:968d CONF:1 c337 CONF:3 b754 CONF:3 0 CONF:0 0 CONF:0 0 CONF:0 BB SIZE:0
TAG:a2 FORMAT:1 ENTANGLED_ADDRESSES:0 CONF:0 0 CONF:0 0 CONF:0 0 CONF:0 0 CONF:0 0 CONF:0 BB SIZE:1
TAG:84 FORMAT:3 ENTANGLED_ADDRESSES:18cd CONF:3 12128 CONF:3 12123 CONF:2 0 CONF:0 0 CONF:0 0 CONF:0 BB SIZE:1
[...]
TAG:0 FORMAT:1 ENTANGLED_ADDRESSES:0 CONF:0 0 CONF:0 0 CONF:0 0 CONF:0 0 CONF:0 0 CONF:0 BB SIZE:0
TAG:0 FORMAT:1 ENTANGLED_ADDRESSES:0 CONF:0 0 CONF:0 0 CONF:0 0 CONF:0 0 CONF:0 0 CONF:0 BB SIZE:0
TAG:0 FORMAT:1 ENTANGLED_ADDRESSES:0 CONF:0 0 CONF:0 0 CONF:0 0 CONF:0 0 CONF:0 0 CONF:0 BB SIZE:0
SET:502
TAG:aa FORMAT:3 ENTANGLED_ADDRESSES:46f5 CONF:3 8878 CONF:3 8844 CONF:3 0 CONF:0 0 CONF:0 0 CONF:0 BB SIZE:1
TAG:f2 FORMAT:3 ENTANGLED_ADDRESSES:16958 CONF:2 87de CONF:3 681d CONF:3 0 CONF:0 0 CONF:0 0 CONF:0 BB SIZE:1a
TAG:82 FORMAT:3 ENTANGLED_ADDRESSES:a3a3 CONF:3 fcc8 CONF:2 5c1d CONF:3 0 CONF:0 0 CONF:0 0 CONF:0 BB SIZE:3
TAG:2e4 FORMAT:2 ENTANGLED_ADDRESSES:edbd3b8 CONF:2 edbd383 CONF:3 0 CONF:0 0 CONF:0 0 CONF:0 0 CONF:0 BB SIZE:1
TAG:a7 FORMAT:2 ENTANGLED_ADDRESSES:edcbbf7 CONF:2 edd0b33 CONF:2 0 CONF:0 0 CONF:0 0 CONF:0 0 CONF:0 BB SIZE:1
TAG:8e FORMAT:2 ENTANGLED_ADDRESSES:ecc145e CONF:3 edcde6b CONF:3 0 CONF:0 0 CONF:0 0 CONF:0 0 CONF:0 BB SIZE:1
TAG:0 FORMAT:1 ENTANGLED_ADDRESSES:0 CONF:0 0 CONF:0 0 CONF:0 0 CONF:0 0 CONF:0 0 CONF:0 BB SIZE:0
TAG:0 FORMAT:1 ENTANGLED_ADDRESSES:0 CONF:0 0 CONF:0 0 CONF:0 0 CONF:0 0 CONF:0 0 CONF:0 BB SIZE:0
TAG:0 FORMAT:1 ENTANGLED_ADDRESSES:0 CONF:0 0 CONF:0 0 CONF:0 0 CONF:0 0 CONF:0 0 CONF:0 BB SIZE:0
TAG:0 FORMAT:1 ENTANGLED_ADDRESSES:0 CONF:0 0 CONF:0 0 CONF:0 0 CONF:0 0 CONF:0 0 CONF:0 BB SIZE:0
TAG:0 FORMAT:1 ENTANGLED_ADDRESSES:0 CONF:0 0 CONF:0 0 CONF:0 0 CONF:0 0 CONF:0 0 CONF:0 BB SIZE:0
TAG:0 FORMAT:1 ENTANGLED_ADDRESSES:0 CONF:0 0 CONF:0 0 CONF:0 0 CONF:0 0 CONF:0 0 CONF:0 BB SIZE:0
TAG:0 FORMAT:1 ENTANGLED_ADDRESSES:0 CONF:0 0 CONF:0 0 CONF:0 0 CONF:0 0 CONF:0 0 CONF:0 BB SIZE:0
TAG:0 FORMAT:1 ENTANGLED_ADDRESSES:0 CONF:0 0 CONF:0 0 CONF:0 0 CONF:0 0 CONF:0 0 CONF:0 BB SIZE:0
TAG:0 FORMAT:1 ENTANGLED_ADDRESSES:0 CONF:0 0 CONF:0 0 CONF:0 0 CONF:0 0 CONF:0 0 CONF:0 BB SIZE:0
TAG:0 FORMAT:1 ENTANGLED_ADDRESSES:0 CONF:0 0 CONF:0 0 CONF:0 0 CONF:0 0 CONF:0 0 CONF:0 BB SIZE:0
SET:503
TAG:9a FORMAT:4 ENTANGLED_ADDRESSES:1c56 CONF:3 86 CONF:0 1abb CONF:3 1a7a CONF:2 1a78 CONF:3 0 CONF:0 BB SIZE:3
TAG:33 FORMAT:3 ENTANGLED_ADDRESSES:15bf3 CONF:3 9668 CONF:3 5a1f CONF:3 0 CONF:0 0 CONF:0 0 CONF:0 BB SIZE:7
TAG:aa FORMAT:3 ENTANGLED_ADDRESSES:2402c CONF:3 24047 CONF:3 4654 CONF:3 0 CONF:0 0 CONF:0 0 CONF:0 BB SIZE:0
TAG:2fd FORMAT:2 ENTANGLED_ADDRESSES:edcac8a CONF:3 edbc859 CONF:3 0 CONF:0 0 CONF:0 0 CONF:0 0 CONF:0 BB SIZE:2
TAG:2e4 FORMAT:2 ENTANGLED_ADDRESSES:edb7d95 CONF:2 edc8f5c CONF:2 0 CONF:0 0 CONF:0 0 CONF:0 0 CONF:0 BB SIZE:1
TAG:e9 FORMAT:3 ENTANGLED_ADDRESSES:93a3 CONF:3 cea CONF:2 0 CONF:0 0 CONF:0 0 CONF:0 0 CONF:0 BB SIZE:2
TAG:0 FORMAT:1 ENTANGLED_ADDRESSES:0 CONF:0 0 CONF:0 0 CONF:0 0 CONF:0 0 CONF:0 0 CONF:0 BB SIZE:0
TAG:0 FORMAT:1 ENTANGLED_ADDRESSES:0 CONF:0 0 CONF:0 0 CONF:0 0 CONF:0 0 CONF:0 0 CONF:0 BB SIZE:0
TAG:0 FORMAT:1 ENTANGLED_ADDRESSES:0 CONF:0 0 CONF:0 0 CONF:0 0 CONF:0 0 CONF:0 0 CONF:0 BB SIZE:0
TAG:0 FORMAT:1 ENTANGLED_ADDRESSES:0 CONF:0 0 CONF:0 0 CONF:0 0 CONF:0 0 CONF:0 0 CONF:0 BB SIZE:0
TAG:0 FORMAT:1 ENTANGLED_ADDRESSES:0 CONF:0 0 CONF:0 0 CONF:0 0 CONF:0 0 CONF:0 0 CONF:0 BB SIZE:0
TAG:0 FORMAT:1 ENTANGLED_ADDRESSES:0 CONF:0 0 CONF:0 0 CONF:0 0 CONF:0 0 CONF:0 0 CONF:0 BB SIZE:0
TAG:0 FORMAT:1 ENTANGLED_ADDRESSES:0 CONF:0 0 CONF:0 0 CONF:0 0 CONF:0 0 CONF:0 0 CONF:0 BB SIZE:0
TAG:0 FORMAT:1 ENTANGLED_ADDRESSES:0 CONF:0 0 CONF:0 0 CONF:0 0 CONF:0 0 CONF:0 0 CONF:0 BB SIZE:0
TAG:0 FORMAT:1 ENTANGLED_ADDRESSES:0 CONF:0 0 CONF:0 0 CONF:0 0 CONF:0 0 CONF:0 0 CONF:0 BB SIZE:0
TAG:0 FORMAT:1 ENTANGLED_ADDRESSES:0 CONF:0 0 CONF:0 0 CONF:0 0 CONF:0 0 CONF:0 0 CONF:0 BB SIZE:0
SET:504
TAG:1e9 FORMAT:3 ENTANGLED_ADDRESSES:25969 CONF:1 15d20 CONF:3 0 CONF:0 0 CONF:0 0 CONF:0 0 CONF:0 BB SIZE:6
TAG:b3 FORMAT:5 ENTANGLED_ADDRESSES:128 CONF:3 127 CONF:3 f9 CONF:2 12d CONF:2 0 CONF:0 0 CONF:0 BB SIZE:1
TAG:8f FORMAT:3 ENTANGLED_ADDRESSES:ce3 CONF:3 0 CONF:0 0 CONF:0 0 CONF:0 0 CONF:0 0 CONF:0 BB SIZE:1
TAG:0 FORMAT:1 ENTANGLED_ADDRESSES:0 CONF:0 0 CONF:0 0 CONF:0 0 CONF:0 0 CONF:0 0 CONF:0 BB SIZE:0
TAG:0 FORMAT:1 ENTANGLED_ADDRESSES:0 CONF:0 0 CONF:0 0 CONF:0 0 CONF:0 0 CONF:0 0 CONF:0 BB SIZE:0
TAG:0 FORMAT:1 ENTANGLED_ADDRESSES:0 CONF:0 0 CONF:0 0 CONF:0 0 CONF:0 0 CONF:0 0 CONF:0 BB SIZE:0
TAG:0 FORMAT:1 ENTANGLED_ADDRESSES:0 CONF:0 0 CONF:0 0 CONF:0 0 CONF:0 0 CONF:0 0 CONF:0 BB SIZE:0
TAG:0 FORMAT:1 ENTANGLED_ADDRESSES:0 CONF:0 0 CONF:0 0 CONF:0 0 CONF:0 0 CONF:0 0 CONF:0 BB SIZE:0
TAG:0 FORMAT:1 ENTANGLED_ADDRESSES:0 CONF:0 0 CONF:0 0 CONF:0 0 CONF:0 0 CONF:0 0 CONF:0 BB SIZE:0
TAG:0 FORMAT:1 ENTANGLED_ADDRESSES:0 CONF:0 0 CONF:0 0 CONF:0 0 CONF:0 0 CONF:0 0 CONF:0 BB SIZE:0
TAG:0 FORMAT:1 ENTANGLED_ADDRESSES:0 CONF:0 0 CONF:0 0 CONF:0 0 CONF:0 0 CONF:0 0 CONF:0 BB SIZE:0
TAG:0 FORMAT:1 ENTANGLED_ADDRESSES:0 CONF:0 0 CONF:0 0 CONF:0 0 CONF:0 0 CONF:0 0 CONF:0 BB SIZE:0
TAG:0 FORMAT:1 ENTANGLED_ADDRESSES:0 CONF:0 0 CONF:0 0 CONF:0 0 CONF:0 0 CONF:0 0 CONF:0 BB SIZE:0
TAG:0 FORMAT:1 ENTANGLED_ADDRESSES:0 CONF:0 0 CONF:0 0 CONF:0 0 CONF:0 0 CONF:0 0 CONF:0 BB SIZE:0
TAG:0 FORMAT:1 ENTANGLED_ADDRESSES:0 CONF:0 0 CONF:0 0 CONF:0 0 CONF:0 0 CONF:0 0 CONF:0 BB SIZE:0
TAG:0 FORMAT:1 ENTANGLED_ADDRESSES:0 CONF:0 0 CONF:0 0 CONF:0 0 CONF:0 0 CONF:0 0 CONF:0 BB SIZE:0
SET:505
TAG:f2 FORMAT:3 ENTANGLED_ADDRESSES:ef9 CONF:3 c481 CONF:2 0 CONF:0 0 CONF:0 0 CONF:0 0 CONF:0 BB SIZE:d
TAG:c6 FORMAT:6 ENTANGLED_ADDRESSES:2b CONF:3 61 CONF:0 27 CONF:0 0 CONF:0 0 CONF:0 0 CONF:0 BB SIZE:5
TAG:33 FORMAT:3 ENTANGLED_ADDRESSES:2523 CONF:2 3329 CONF:2 f1dd CONF:2 0 CONF:0 0 CONF:0 0 CONF:0 BB SIZE:0
TAG:b2 FORMAT:1 ENTANGLED_ADDRESSES:3fffedfc80e CONF:3 ecc0588 CONF:0 88bc CONF:0 0 CONF:0 0 CONF:0 0 CONF:0 BB SIZE:1
TAG:b7 FORMAT:3 ENTANGLED_ADDRESSES:258fa CONF:2 2554d CONF:3 311 CONF:0 709e CONF:3 0 CONF:0 0 CONF:0 BB SIZE:4
TAG:1e8 FORMAT:5 ENTANGLED_ADDRESSES:191 CONF:3 193 CONF:2 198 CONF:1 196 CONF:2 199 CONF:3 0 CONF:0 BB SIZE:2
TAG:1c9 FORMAT:2 ENTANGLED_ADDRESSES:edc817c CONF:2 edc817f CONF:1 0 CONF:0 0 CONF:0 0 CONF:0 0 CONF:0 BB SIZE:1
TAG:1ee FORMAT:4 ENTANGLED_ADDRESSES:1554 CONF:1 1514 CONF:1 25519 CONF:0 0 CONF:0 0 CONF:0 0 CONF:0 BB SIZE:0
TAG:2e7 FORMAT:2 ENTANGLED_ADDRESSES:edcde79 CONF:3 edbc8f9 CONF:3 0 CONF:0 0 CONF:0 0 CONF:0 0 CONF:0 BB SIZE:0
TAG:1fc FORMAT:3 ENTANGLED_ADDRESSES:3cde4 CONF:3 35cc3 CONF:3 0 CONF:0 0 CONF:0 0 CONF:0 0 CONF:0 BB SIZE:1
TAG:0 FORMAT:1 ENTANGLED_ADDRESSES:0 CONF:0 0 CONF:0 0 CONF:0 0 CONF:0 0 CONF:0 0 CONF:0 BB SIZE:0
TAG:0 FORMAT:1 ENTANGLED_ADDRESSES:0 CONF:0 0 CONF:0 0 CONF:0 0 CONF:0 0 CONF:0 0 CONF:0 BB SIZE:0
TAG:0 FORMAT:1 ENTANGLED_ADDRESSES:0 CONF:0 0 CONF:0 0 CONF:0 0 CONF:0 0 CONF:0 0 CONF:0 BB SIZE:0
TAG:0 FORMAT:1 ENTANGLED_ADDRESSES:0 CONF:0 0 CONF:0 0 CONF:0 0 CONF:0 0 CONF:0 0 CONF:0 BB SIZE:0
TAG:0 FORMAT:1 ENTANGLED_ADDRESSES:0 CONF:0 0 CONF:0 0 CONF:0 0 CONF:0 0 CONF:0 0 CONF:0 BB SIZE:0
TAG:0 FORMAT:1 ENTANGLED_ADDRESSES:0 CONF:0 0 CONF:0 0 CONF:0 0 CONF:0 0 CONF:0 0 CONF:0 BB SIZE:0
SET:506
TAG:d7 FORMAT:1 ENTANGLED_ADDRESSES:0 CONF:0 0 CONF:0 0 CONF:0 0 CONF:0 0 CONF:0 0 CONF:0 BB SIZE:3
TAG:b4 FORMAT:3 ENTANGLED_ADDRESSES:77b3 CONF:3 871c CONF:3 8717 CONF:3 0 CONF:0 0 CONF:0 0 CONF:0 BB SIZE:2
TAG:bd FORMAT:4 ENTANGLED_ADDRESSES:f0f CONF:3 f0c CONF:3 0 CONF:0 0 CONF:0 0 CONF:0 0 CONF:0 BB SIZE:8
TAG:2a2 FORMAT:3 ENTANGLED_ADDRESSES:10b44 CONF:3 10b47 CONF:3 0 CONF:0 0 CONF:0 0 CONF:0 0 CONF:0 BB SIZE:1
TAG:1fc FORMAT:2 ENTANGLED_ADDRESSES:edcac8a CONF:0 0 CONF:0 0 CONF:0 0 CONF:0 0 CONF:0 0 CONF:0 BB SIZE:2
TAG:99 FORMAT:3 ENTANGLED_ADDRESSES:3a64 CONF:3 4654 CONF:3 3d40 CONF:2 0 CONF:0 0 CONF:0 0 CONF:0 BB SIZE:1
TAG:2e7 FORMAT:2 ENTANGLED_ADDRESSES:edc2704 CONF:2 edbd8c1 CONF:2 0 CONF:0 0 CONF:0 0 CONF:0 0 CONF:0 BB SIZE:1
TAG:0 FORMAT:1 ENTANGLED_ADDRESSES:0 CONF:0 0 CONF:0 0 CONF:0 0 CONF:0 0 CONF:0 0 CONF:0 BB SIZE:0
TAG:0 FORMAT:1 ENTANGLED_ADDRESSES:0 CONF:0 0 CONF:0 0 CONF:0 0 CONF:0 0 CONF:0 0 CONF:0 BB SIZE:0
TAG:0 FORMAT:1 ENTANGLED_ADDRESSES:0 CONF:0 0 CONF:0 0 CONF:0 0 CONF:0 0 CONF:0 0 CONF:0 BB SIZE:0
TAG:0 FORMAT:1 ENTANGLED_ADDRESSES:0 CONF:0 0 CONF:0 0 CONF:0 0 CONF:0 0 CONF:0 0 CONF:0 BB SIZE:0
TAG:0 FORMAT:1 ENTANGLED_ADDRESSES:0 CONF:0 0 CONF:0 0 CONF:0 0 CONF:0 0 CONF:0 0 CONF:0 BB SIZE:0
TAG:0 FORMAT:1 ENTANGLED_ADDRESSES:0 CONF:0 0 CONF:0 0 CONF:0 0 CONF:0 0 CONF:0 0 CONF:0 BB SIZE:0
TAG:0 FORMAT:1 ENTANGLED_ADDRESSES:0 CONF:0 0 CONF:0 0 CONF:0 0 CONF:0 0 CONF:0 0 CONF:0 BB SIZE:0
TAG:0 FORMAT:1 ENTANGLED_ADDRESSES:0 CONF:0 0 CONF:0 0 CONF:0 0 CONF:0 0 CONF:0 0 CONF:0 BB SIZE:0
TAG:0 FORMAT:1 ENTANGLED_ADDRESSES:0 CONF:0 0 CONF:0 0 CONF:0 0 CONF:0 0 CONF:0 0 CONF:0 BB SIZE:0
SET:507
TAG:94 FORMAT:3 ENTANGLED_ADDRESSES:5be8 CONF:0 9a6c CONF:1 10100 CONF:2 0 CONF:0 0 CONF:0 0 CONF:0 BB SIZE:1
TAG:28 FORMAT:3 ENTANGLED_ADDRESSES:77cc CONF:3 94 CONF:0 1627e CONF:2 162b1 CONF:3 0 CONF:0 0 CONF:0 BB SIZE:9
TAG:b4 FORMAT:3 ENTANGLED_ADDRESSES:777a CONF:3 77a4 CONF:2 fc1a CONF:2 0 CONF:0 0 CONF:0 0 CONF:0 BB SIZE:3
TAG:ed FORMAT:1 ENTANGLED_ADDRESSES:0 CONF:0 0 CONF:0 0 CONF:0 0 CONF:0 0 CONF:0 0 CONF:0 BB SIZE:5
TAG:bd FORMAT:3 ENTANGLED_ADDRESSES:3fc0 CONF:2 2e7e CONF:3 0 CONF:0 0 CONF:0 0 CONF:0 0 CONF:0 BB SIZE:5
TAG:ad FORMAT:1 ENTANGLED_ADDRESSES:3fffc0000202072 CONF:3 0 CONF:0 0 CONF:0 0 CONF:0 0 CONF:0 0 CONF:0 BB SIZE:2
TAG:14 FORMAT:3 ENTANGLED_ADDRESSES:24455 CONF:3 24461 CONF:3 30bc CONF:3 0 CONF:0 0 CONF:0 0 CONF:0 BB SIZE:2
TAG:99 FORMAT:3 ENTANGLED_ADDRESSES:276f8 CONF:3 3a64 CONF:2 3b4b CONF:3 0 CONF:0 0 CONF:0 0 CONF:0 BB SIZE:2
TAG:1eb FORMAT:4 ENTANGLED_ADDRESSES:5d4 CONF:2 4da CONF:3 5d3 CONF:3 0 CONF:0 0 CONF:0 0 CONF:0 BB SIZE:0
TAG:b3 FORMAT:5 ENTANGLED_ADDRESSES:265 CONF:3 12c CONF:3 0 CONF:0 0 CONF:0 0 CONF:0 0 CONF:0 BB SIZE:1
TAG:0 FORMAT:1 ENTANGLED_ADDRESSES:0 CONF:0 0 CONF:0 0 CONF:0 0 CONF:0 0 CONF:0 0 CONF:0 BB SIZE:0
TAG:0 FORMAT:1 ENTANGLED_ADDRESSES:0 CONF:0 0 CONF:0 0 CONF:0 0 CONF:0 0 CONF:0 0 CONF:0 BB SIZE:0
TAG:0 FORMAT:1 ENTANGLED_ADDRESSES:0 CONF:0 0 CONF:0 0 CONF:0 0 CONF:0 0 CONF:0 0 CONF:0 BB SIZE:0
TAG:0 FORMAT:1 ENTANGLED_ADDRESSES:0 CONF:0 0 CONF:0 0 CONF:0 0 CONF:0 0 CONF:0 0 CONF:0 BB SIZE:0
TAG:0 FORMAT:1 ENTANGLED_ADDRESSES:0 CONF:0 0 CONF:0 0 CONF:0 0 CONF:0 0 CONF:0 0 CONF:0 BB SIZE:0
TAG:0 FORMAT:1 ENTANGLED_ADDRESSES:0 CONF:0 0 CONF:0 0 CONF:0 0 CONF:0 0 CONF:0 0 CONF:0 BB SIZE:0
SET:508
TAG:30 FORMAT:3 ENTANGLED_ADDRESSES:15c23 CONF:2 3905 CONF:3 12a7f CONF:3 0 CONF:0 0 CONF:0 0 CONF:0 BB SIZE:5
TAG:c6 FORMAT:1 ENTANGLED_ADDRESSES:0 CONF:0 0 CONF:0 0 CONF:0 0 CONF:0 0 CONF:0 0 CONF:0 BB SIZE:8
TAG:e9 FORMAT:6 ENTANGLED_ADDRESSES:93 CONF:1 0 CONF:0 0 CONF:0 0 CONF:0 0 CONF:0 0 CONF:0 BB SIZE:b
TAG:e2 FORMAT:3 ENTANGLED_ADDRESSES:11561 CONF:2 11547 CONF:0 0 CONF:0 0 CONF:0 0 CONF:0 0 CONF:0 BB SIZE:3
TAG:aa FORMAT:3 ENTANGLED_ADDRESSES:7fea CONF:0 7859 CONF:3 7ff0 CONF:0 0 CONF:0 0 CONF:0 0 CONF:0 BB SIZE:2
TAG:bd FORMAT:4 ENTANGLED_ADDRESSES:f0f CONF:2 f0c CONF:2 0 CONF:0 0 CONF:0 0 CONF:0 0 CONF:0 BB SIZE:1
TAG:ce FORMAT:3 ENTANGLED_ADDRESSES:c9cc CONF:3 6a83 CONF:2 18fc CONF:2 0 CONF:0 0 CONF:0 0 CONF:0 BB SIZE:13
TAG:2e4 FORMAT:2 ENTANGLED_ADDRESSES:edbd39c CONF:3 edceff0 CONF:3 0 CONF:0 0 CONF:0 0 CONF:0 0 CONF:0 BB SIZE:2
TAG:0 FORMAT:1 ENTANGLED_ADDRESSES:0 CONF:0 0 CONF:0 0 CONF:0 0 CONF:0 0 CONF:0 0 CONF:0 BB SIZE:0
TAG:0 FORMAT:1 ENTANGLED_ADDRESSES:0 CONF:0 0 CONF:0 0 CONF:0 0 CONF:0 0 CONF:0 0 CONF:0 BB SIZE:0
TAG:0 FORMAT:1 ENTANGLED_ADDRESSES:0 CONF:0 0 CONF:0 0 CONF:0 0 CONF:0 0 CONF:0 0 CONF:0 BB SIZE:0
TAG:0 FORMAT:1 ENTANGLED_ADDRESSES:0 CONF:0 0 CONF:0 0 CONF:0 0 CONF:0 0 CONF:0 0 CONF:0 BB SIZE:0
TAG:0 FORMAT:1 ENTANGLED_ADDRESSES:0 CONF:0 0 CONF:0 0 CONF:0 0 CONF:0 0 CONF:0 0 CONF:0 BB SIZE:0
TAG:0 FORMAT:1 ENTANGLED_ADDRESSES:0 CONF:0 0 CONF:0 0 CONF:0 0 CONF:0 0 CONF:0 0 CONF:0 BB SIZE:0
TAG:0 FORMAT:1 ENTANGLED_ADDRESSES:0 CONF:0 0 CONF:0 0 CONF:0 0 CONF:0 0 CONF:0 0 CONF:0 BB SIZE:0
TAG:0 FORMAT:1 ENTANGLED_ADDRESSES:0 CONF:0 0 CONF:0 0 CONF:0 0 CONF:0 0 CONF:0 0 CONF:0 BB SIZE:0
SET:509
TAG:b2 FORMAT:3 ENTANGLED_ADDRESSES:20bb CONF:2 88af CONF:0 20b4 CONF:3 0 CONF:0 0 CONF:0 0 CONF:0 BB SIZE:1
TAG:ca FORMAT:3 ENTANGLED_ADDRESSES:b74d CONF:3 b74c CONF:3 0 CONF:0 0 CONF:0 0 CONF:0 0 CONF:0 BB SIZE:8
TAG:82 FORMAT:3 ENTANGLED_ADDRESSES:783a CONF:3 5c14 CONF:3 5c24 CONF:3 0 CONF:0 0 CONF:0 0 CONF:0 BB SIZE:7
TAG:d4 FORMAT:1 ENTANGLED_ADDRESSES:3fffc0000202070 CONF:3 edfc825 CONF:0 0 CONF:0 0 CONF:0 0 CONF:0 0 CONF:0 BB SIZE:1
TAG:3d FORMAT:4 ENTANGLED_ADDRESSES:198 CONF:2 1ed CONF:2 147f CONF:3 0 CONF:0 0 CONF:0 0 CONF:0 BB SIZE:1
TAG:fa FORMAT:3 ENTANGLED_ADDRESSES:7f66 CONF:3 ed4d CONF:3 101ef CONF:3 0 CONF:0 0 CONF:0 0 CONF:0 BB SIZE:1
TAG:2a2 FORMAT:6 ENTANGLED_ADDRESSES:98 CONF:3 0 CONF:0 0 CONF:0 0 CONF:0 0 CONF:0 0 CONF:0 BB SIZE:2
TAG:1e8 FORMAT:4 ENTANGLED_ADDRESSES:4c CONF:3 1591 CONF:3 4f CONF:3 51 CONF:3 0 CONF:0 0 CONF:0 BB SIZE:2
TAG:ad FORMAT:1 ENTANGLED_ADDRESSES:0 CONF:0 0 CONF:0 0 CONF:0 0 CONF:0 0 CONF:0 0 CONF:0 BB SIZE:1
TAG:41 FORMAT:5 ENTANGLED_ADDRESSES:18f CONF:3 0 CONF:0 0 CONF:0 0 CONF:0 0 CONF:0 0 CONF:0 BB SIZE:1
TAG:0 FORMAT:1 ENTANGLED_ADDRESSES:0 CONF:0 0 CONF:0 0 CONF:0 0 CONF:0 0 CONF:0 0 CONF:0 BB SIZE:0
TAG:0 FORMAT:1 ENTANGLED_ADDRESSES:0 CONF:0 0 CONF:0 0 CONF:0 0 CONF:0 0 CONF:0 0 CONF:0 BB SIZE:0
TAG:0 FORMAT:1 ENTANGLED_ADDRESSES:0 CONF:0 0 CONF:0 0 CONF:0 0 CONF:0 0 CONF:0 0 CONF:0 BB SIZE:0
TAG:0 FORMAT:1 ENTANGLED_ADDRESSES:0 CONF:0 0 CONF:0 0 CONF:0 0 CONF:0 0 CONF:0 0 CONF:0 BB SIZE:0
TAG:0 FORMAT:1 ENTANGLED_ADDRESSES:0 CONF:0 0 CONF:0 0 CONF:0 0 CONF:0 0 CONF:0 0 CONF:0 BB SIZE:0
TAG:0 FORMAT:1 ENTANGLED_ADDRESSES:0 CONF:0 0 CONF:0 0 CONF:0 0 CONF:0 0 CONF:0 0 CONF:0 BB SIZE:0
SET:510
TAG:ca FORMAT:3 ENTANGLED_ADDRESSES:b763 CONF:3 80a5 CONF:1 0 CONF:0 0 CONF:0 0 CONF:0 0 CONF:0 BB SIZE:7
TAG:d7 FORMAT:3 ENTANGLED_ADDRESSES:fbbc CONF:2 15cba CONF:3 0 CONF:0 0 CONF:0 0 CONF:0 0 CONF:0 BB SIZE:6
TAG:33 FORMAT:3 ENTANGLED_ADDRESSES:e820 CONF:3 d897 CONF:3 d8a1 CONF:3 0 CONF:0 0 CONF:0 0 CONF:0 BB SIZE:9
TAG:ad FORMAT:2 ENTANGLED_ADDRESSES:edbe383 CONF:3 edd0b33 CONF:3 0 CONF:0 0 CONF:0 0 CONF:0 0 CONF:0 BB SIZE:2
TAG:1eb FORMAT:4 ENTANGLED_ADDRESSES:1356 CONF:3 1a36 CONF:2 1a20 CONF:2 1a2c CONF:2 0 CONF:0 0 CONF:0 BB SIZE:3
TAG:2e4 FORMAT:1 ENTANGLED_ADDRESSES:0 CONF:0 0 CONF:0 0 CONF:0 0 CONF:0 0 CONF:0 0 CONF:0 BB SIZE:1
TAG:a7 FORMAT:6 ENTANGLED_ADDRESSES:f2 CONF:2 e3 CONF:3 f0 CONF:3 0 CONF:0 0 CONF:0 0 CONF:0 BB SIZE:5
TAG:41 FORMAT:1 ENTANGLED_ADDRESSES:0 CONF:0 0 CONF:0 0 CONF:0 0 CONF:0 0 CONF:0 0 CONF:0 BB SIZE:1
TAG:0 FORMAT:1 ENTANGLED_ADDRESSES:0 CONF:0 0 CONF:0 0 CONF:0 0 CONF:0 0 CONF:0 0 CONF:0 BB SIZE:0
TAG:0 FORMAT:1 ENTANGLED_ADDRESSES:0 CONF:0 0 CONF:0 0 CONF:0 0 CONF:0 0 CONF:0 0 CONF:0 BB SIZE:0
TAG:0 FORMAT:1 ENTANGLED_ADDRESSES:0 CONF:0 0 CONF:0 0 CONF:0 0 CONF:0 0 CONF:0 0 CONF:0 BB SIZE:0
TAG:0 FORMAT:1 ENTANGLED_ADDRESSES:0 CONF:0 0 CONF:0 0 CONF:0 0 CONF:0 0 CONF:0 0 CONF:0 BB SIZE:0
TAG:0 FORMAT:1 ENTANGLED_ADDRESSES:0 CONF:0 0 CONF:0 0 CONF:0 0 CONF:0 0 CONF:0 0 CONF:0 BB SIZE:0
TAG:0 FORMAT:1 ENTANGLED_ADDRESSES:0 CONF:0 0 CONF:0 0 CONF:0 0 CONF:0 0 CONF:0 0 CONF:0 BB SIZE:0
TAG:0 FORMAT:1 ENTANGLED_ADDRESSES:0 CONF:0 0 CONF:0 0 CONF:0 0 CONF:0 0 CONF:0 0 CONF:0 BB SIZE:0
TAG:0 FORMAT:1 ENTANGLED_ADDRESSES:0 CONF:0 0 CONF:0 0 CONF:0 0 CONF:0 0 CONF:0 0 CONF:0 BB SIZE:0
SET:511
TAG:c6 FORMAT:6 ENTANGLED_ADDRESSES:3d CONF:3 0 CONF:0 0 CONF:0 0 CONF:0 0 CONF:0 0 CONF:0 BB SIZE:7
TAG:d4 FORMAT:2 ENTANGLED_ADDRESSES:ecc178c CONF:0 edf85f2 CONF:2 0 CONF:0 0 CONF:0 0 CONF:0 0 CONF:0 BB SIZE:0
TAG:b4 FORMAT:4 ENTANGLED_ADDRESSES:19e8 CONF:3 1776 CONF:0 19b9 CONF:3 19e5 CONF:2 0 CONF:0 0 CONF:0 BB SIZE:3
TAG:a7 FORMAT:2 ENTANGLED_ADDRESSES:edcba33 CONF:2 13cbe CONF:0 ecd3cc1 CONF:3 0 CONF:0 0 CONF:0 0 CONF:0 BB SIZE:7
TAG:2e4 FORMAT:2 ENTANGLED_ADDRESSES:edbc80f CONF:2 edbd39b CONF:3 0 CONF:0 0 CONF:0 0 CONF:0 0 CONF:0 BB SIZE:6
TAG:1ee FORMAT:6 ENTANGLED_ADDRESSES:74 CONF:2 71 CONF:2 0 CONF:0 0 CONF:0 0 CONF:0 0 CONF:0 BB SIZE:1
TAG:1e8 FORMAT:5 ENTANGLED_ADDRESSES:311 CONF:3 0 CONF:0 0 CONF:0 0 CONF:0 0 CONF:0 0 CONF:0 BB SIZE:1
TAG:32 FORMAT:2 ENTANGLED_ADDRESSES:edcba2d CONF:3 0 CONF:0 0 CONF:0 0 CONF:0 0 CONF:0 0 CONF:0 BB SIZE:7
TAG:41 FORMAT:6 ENTANGLED_ADDRESSES:b4 CONF:2 0 CONF:0 0 CONF:0 0 CONF:0 0 CONF:0 0 CONF:0 BB SIZE:1
TAG:0 FORMAT:1 ENTANGLED_ADDRESSES:0 CONF:0 0 CONF:0 0 CONF:0 0 CONF:0 0 CONF:0 0 CONF:0 BB SIZE:0
TAG:0 FORMAT:1 ENTANGLED_ADDRESSES:0 CONF:0 0 CONF:0 0 CONF:0 0 CONF:0 0 CONF:0 0 CONF:0 BB SIZE:0
TAG:0 FORMAT:1 ENTANGLED_ADDRESSES:0 CONF:0 0 CONF:0 0 CONF:0 0 CONF:0 0 CONF:0 0 CONF:0 BB SIZE:0
TAG:0 FORMAT:1 ENTANGLED_ADDRESSES:0 CONF:0 0 CONF:0 0 CONF:0 0 CONF:0 0 CONF:0 0 CONF:0 BB SIZE:0
TAG:0 FORMAT:1 ENTANGLED_ADDRESSES:0 CONF:0 0 CONF:0 0 CONF:0 0 CONF:0 0 CONF:0 0 CONF:0 BB SIZE:0
TAG:0 FORMAT:1 ENTANGLED_ADDRESSES:0 CONF:0 0 CONF:0 0 CONF:0 0 CONF:0 0 CONF:0 0 CONF:0 BB SIZE:0
TAG:0 FORMAT:1 ENTANGLED_ADDRESSES:0 CONF:0 0 CONF:0 0 CONF:0 0 CONF:0 0 CONF:0 0 CONF:0 BB SIZE:0
SET:512
TAG:d7 FORMAT:3 ENTANGLED_ADDRESSES:3bcb CONF:3 3bbf CONF:3 3993 CONF:1 0 CONF:0 0 CONF:0 0 CONF:0 BB SIZE:4
TAG:2a2 FORMAT:3 ENTANGLED_ADDRESSES:10b44 CONF:3 0 CONF:0 0 CONF:0 0 CONF:0 0 CONF:0 0 CONF:0 BB SIZE:1
TAG:0 FORMAT:1 ENTANGLED_ADDRESSES:0 CONF:0 0 CONF:0 0 CONF:0 0 CONF:0 0 CONF:0 0 CONF:0 BB SIZE:0
TAG:0 FORMAT:1 ENTANGLED_ADDRESSES:0 CONF:0 0 CONF:0 0 CONF:0 0 CONF:0 0 CONF:0 0 CONF:0 BB SIZE:0
TAG:0 FORMAT:1 ENTANGLED_ADDRESSES:0 CONF:0 0 CONF:0 0 CONF:0 0 CONF:0 0 CONF:0 0 CONF:0 BB SIZE:0
TAG:0 FORMAT:1 ENTANGLED_ADDRESSES:0 CONF:0 0 CONF:0 0 CONF:0 0 CONF:0 0 CONF:0 0 CONF:0 BB SIZE:0
TAG:0 FORMAT:1 ENTANGLED_ADDRESSES:0 CONF:0 0 CONF:0 0 CONF:0 0 CONF:0 0 CONF:0 0 CONF:0 BB SIZE:0
TAG:0 FORMAT:1 ENTANGLED_ADDRESSES:0 CONF:0 0 CONF:0 0 CONF:0 0 CONF:0 0 CONF:0 0 CONF:0 BB SIZE:0
TAG:0 FORMAT:1 ENTANGLED_ADDRESSES:0 CONF:0 0 CONF:0 0 CONF:0 0 CONF:0 0 CONF:0 0 CONF:0 BB SIZE:0
TAG:0 FORMAT:1 ENTANGLED_ADDRESSES:0 CONF:0 0 CONF:0 0 CONF:0 0 CONF:0 0 CONF:0 0 CONF:0 BB SIZE:0
TAG:0 FORMAT:1 ENTANGLED_ADDRESSES:0 CONF:0 0 CONF:0 0 CONF:0 0 CONF:0 0 CONF:0 0 CONF:0 BB SIZE:0
TAG:0 FORMAT:1 ENTANGLED_ADDRESSES:0 CONF:0 0 CONF:0 0 CONF:0 0 CONF:0 0 CONF:0 0 CONF:0 BB SIZE:0
TAG:0 FORMAT:1 ENTANGLED_ADDRESSES:0 CONF:0 0 CONF:0 0 CONF:0 0 CONF:0 0 CONF:0 0 CONF:0 BB SIZE:0
TAG:0 FORMAT:1 ENTANGLED_ADDRESSES:0 CONF:0 0 CONF:0 0 CONF:0 0 CONF:0 0 CONF:0 0 CONF:0 BB SIZE:0
TAG:0 FORMAT:1 ENTANGLED_ADDRESSES:0 CONF:0 0 CONF:0 0 CONF:0 0 CONF:0 0 CONF:0 0 CONF:0 BB SIZE:0
TAG:0 FORMAT:1 ENTANGLED_ADDRESSES:0 CONF:0 0 CONF:0 0 CONF:0 0 CONF:0 0 CONF:0 0 CONF:0 BB SIZE:0
CPU 0 TLB Entangling prefetcher final stats
ACCESS:11a0 HIT:11a0 MISS:0
IP accesses: cf01 cf01000 2531 / 196292
IP misses: 0 0 19 / 14504
IP hits: 0 0 0 / 0
IP late: ca91 ca91000 7 / 228
IP wrong: 55dd 55dd000 1 / 1
miss rate: 0.0738899
coverage: 0
coverage_late: 0.0157198
accuracy: 0
accuracy_late: 0.995633
discarded: 0
evicts entangled j table: 0
evicts entangled k table: 5635
max bb size: 45
formats: 5175 1078 2695 1409 907 1031 0 
hist_lookups: 15886 12127 3154 1175 663 411 244 162 135 83 38 41 52 44 3 0 6 1772 
hist_lookups_evict: 0.0166685 %
hist_lookups_shortlat: 4.92277 %
bb_found_hist: 0 13206 830 16 2 1 0 2 0 3 0 1 1 3 2 0 
bb_found_summary: 15058 14067 1.07045
entangled_found_hist: 0 81298 21681 15337 829 0 0 0 
entangled_found_summary: 173987 119145 1.4603
bb_ent_found_hist: 0 6503 431 10 0 28 0 2 0 29 0 0 11 1 0 0 
bb_ent_found_summary: 7955 7015 1.134

DRAM Statistics
 CHANNEL 0
 RQ ROW_BUFFER_HIT:      25056  ROW_BUFFER_MISS:     111172
 DBUS AVG_CONGESTED_CYCLE:    3.92751
 WQ ROW_BUFFER_HIT:       9281  ROW_BUFFER_MISS:      64865  FULL:          0


CPU 0 Branch Prediction Accuracy: 96.6016% MPKI: 5.79848 Average ROB Occupancy at Mispredict: 200.618
Branch type MPKI
BRANCH_DIRECT_JUMP: 0.0432
BRANCH_INDIRECT: 0.12976
BRANCH_CONDITIONAL: 4.13252
BRANCH_DIRECT_CALL: 0.06328
BRANCH_INDIRECT_CALL: 0.0208
BRANCH_RETURN: 1.40892

