
*** ChampSim Multicore Out-of-Order Simulator ***

Warmup Instructions: 25000000
Simulation Instructions: 25000000
Number of CPUs: 1
Off-chip DRAM Size: 4 GiB Channels: 1 Width: 64-bit Data Rate: 3200 MT/s

VirtualMemory physical capacity: 8588881920 num_ppages: 2096895
VirtualMemory page size: 4096 log2_page_size: 12

CPU 0 runs ipc1_public/server_004.champsimtrace.xz
Basic BTB sets: 1024 ways: 8 indirect buffer size: 4096 RAS size: 64
CPU 0 Entangling prefetcher
cpu0_STLB next line prefetcher
cpu0_L1D next line prefetcher
WARNING: The extended signature CACHE::prefetch_line(ip, base_addr, pf_addr, fill_this_level, prefetch_metadata) is deprecated.
WARNING: Use CACHE::prefetch_line(pf_addr, fill_this_level, prefetch_metadata) instead.
Heartbeat CPU 0 instructions: 10000000 cycles: 2546532 heartbeat IPC: 3.92691 cumulative IPC: 3.92691 (Simulation time: 0 hr 0 min 51 sec) 
Heartbeat CPU 0 instructions: 20000003 cycles: 5113127 heartbeat IPC: 3.89621 cumulative IPC: 3.9115 (Simulation time: 0 hr 1 min 42 sec) 

Warmup complete CPU 0 instructions: 25000001 cycles: 6767728 (Simulation time: 0 hr 2 min 21 sec) 

Heartbeat CPU 0 instructions: 30000000 cycles: 17997416 heartbeat IPC: 0.776139 cumulative IPC: 0.445248 (Simulation time: 0 hr 4 min 6 sec) 
Heartbeat CPU 0 instructions: 40000000 cycles: 28235844 heartbeat IPC: 0.976712 cumulative IPC: 0.698711 (Simulation time: 0 hr 5 min 59 sec) 
Heartbeat CPU 0 instructions: 50000000 cycles: 34131494 heartbeat IPC: 1.69617 cumulative IPC: 0.913617 (Simulation time: 0 hr 7 min 27 sec) 
Finished CPU 0 instructions: 25000003 cycles: 27363767 cumulative IPC: 0.913617 (Simulation time: 0 hr 7 min 27 sec) 

ChampSim completed all CPUs

Region of Interest Statistics

CPU 0 cumulative IPC: 0.913617 instructions: 25000003 cycles: 27363767
cpu0_DTLB TOTAL     ACCESS:    5198525  HIT:    4173564  MISS:    1024961
cpu0_DTLB LOAD      ACCESS:    3728896  HIT:    2718786  MISS:    1010110
cpu0_DTLB RFO       ACCESS:    1469629  HIT:    1454778  MISS:      14851
cpu0_DTLB PREFETCH  ACCESS:          0  HIT:          0  MISS:          0
cpu0_DTLB WRITEBACK ACCESS:          0  HIT:          0  MISS:          0
cpu0_DTLB TRANSLATION ACCESS:          0  HIT:          0  MISS:          0
cpu0_DTLB PREFETCH  REQUESTED:          0  ISSUED:          0  USEFUL:          0  USELESS:          0
cpu0_DTLB AVERAGE MISS LATENCY: 9.55228 cycles
cpu0_ITLB TOTAL     ACCESS:    1826972  HIT:    1750361  MISS:      76611
cpu0_ITLB LOAD      ACCESS:    1826972  HIT:    1750361  MISS:      76611
cpu0_ITLB RFO       ACCESS:          0  HIT:          0  MISS:          0
cpu0_ITLB PREFETCH  ACCESS:          0  HIT:          0  MISS:          0
cpu0_ITLB WRITEBACK ACCESS:          0  HIT:          0  MISS:          0
cpu0_ITLB TRANSLATION ACCESS:          0  HIT:          0  MISS:          0
cpu0_ITLB PREFETCH  REQUESTED:          0  ISSUED:          0  USEFUL:          0  USELESS:          0
cpu0_ITLB AVERAGE MISS LATENCY: 11.1688 cycles
cpu0_L1I TOTAL     ACCESS:    9998671  HIT:    9283149  MISS:     715522
cpu0_L1I LOAD      ACCESS:    2630069  HIT:    2562398  MISS:      67671
cpu0_L1I RFO       ACCESS:          0  HIT:          0  MISS:          0
cpu0_L1I PREFETCH  ACCESS:    7368602  HIT:    6720751  MISS:     647851
cpu0_L1I WRITEBACK ACCESS:          0  HIT:          0  MISS:          0
cpu0_L1I TRANSLATION ACCESS:          0  HIT:          0  MISS:          0
cpu0_L1I PREFETCH  REQUESTED:   11238760  ISSUED:    7399116  USEFUL:     565745  USELESS:      98745
cpu0_L1I AVERAGE MISS LATENCY: 20.6749 cycles
cpu0_STLB TOTAL     ACCESS:    1101572  HIT:    1052133  MISS:      49439
cpu0_STLB LOAD      ACCESS:    1086721  HIT:    1039107  MISS:      47614
cpu0_STLB RFO       ACCESS:      14851  HIT:      13026  MISS:       1825
cpu0_STLB PREFETCH  ACCESS:          0  HIT:          0  MISS:          0
cpu0_STLB WRITEBACK ACCESS:          0  HIT:          0  MISS:          0
cpu0_STLB TRANSLATION ACCESS:          0  HIT:          0  MISS:          0
cpu0_STLB PREFETCH  REQUESTED:    1086721  ISSUED:          0  USEFUL:          0  USELESS:          0
cpu0_STLB AVERAGE MISS LATENCY: 14.6229 cycles
cpu0_L1D TOTAL     ACCESS:   11287177  HIT:    8570857  MISS:    2716320
cpu0_L1D LOAD      ACCESS:    4506144  HIT:    3151635  MISS:    1354509
cpu0_L1D RFO       ACCESS:    2290515  HIT:    2230361  MISS:      60154
cpu0_L1D PREFETCH  ACCESS:    4442655  HIT:    3147874  MISS:    1294781
cpu0_L1D WRITEBACK ACCESS:          0  HIT:          0  MISS:          0
cpu0_L1D TRANSLATION ACCESS:      47863  HIT:      40987  MISS:       6876
cpu0_L1D PREFETCH  REQUESTED:    4523668  ISSUED:    4509546  USEFUL:     141876  USELESS:    1164885
cpu0_L1D AVERAGE MISS LATENCY: 15.3174 cycles
cpu0_L2C TOTAL     ACCESS:    3556989  HIT:    3057250  MISS:     499739
cpu0_L2C LOAD      ACCESS:    1393743  HIT:    1272240  MISS:     121503
cpu0_L2C RFO       ACCESS:      59843  HIT:      39488  MISS:      20355
cpu0_L2C PREFETCH  ACCESS:    1971344  HIT:    1616024  MISS:     355320
cpu0_L2C WRITEBACK ACCESS:     125183  HIT:     124023  MISS:       1160
cpu0_L2C TRANSLATION ACCESS:       6876  HIT:       5475  MISS:       1401
cpu0_L2C PREFETCH  REQUESTED:          0  ISSUED:          0  USEFUL:          0  USELESS:          0
cpu0_L2C AVERAGE MISS LATENCY: 38.9781 cycles
LLC TOTAL     ACCESS:     563086  HIT:     517077  MISS:      46009
LLC LOAD      ACCESS:     121501  HIT:     108221  MISS:      13280
LLC RFO       ACCESS:      20349  HIT:      16233  MISS:       4116
LLC PREFETCH  ACCESS:     355318  HIT:     326769  MISS:      28549
LLC WRITEBACK ACCESS:      64517  HIT:      64512  MISS:          5
LLC TRANSLATION ACCESS:       1401  HIT:       1342  MISS:         59
LLC PREFETCH  REQUESTED:          0  ISSUED:          0  USEFUL:          0  USELESS:          0
LLC AVERAGE MISS LATENCY: 195.739 cycles
CPU 0 L1I Entangling prefetcher final stats
IP accesses: 3a98 ea600 36271 / 2632807
IP misses: a6db 29b6c0 289 / 70409
IP hits: 0 0 0 / 0
IP late: bc04 2f0100 228 / 40188
IP wrong: abf3 2afcc0 506 / 197697
miss rate: 0.0267429
coverage: 0
coverage_late: 0.570779
accuracy: 0
accuracy_late: 0.168939
discarded: 0
evicts entangled j table: 0
evicts entangled k table: 12854
max bb size: 111
formats: 1088 5366 10961 2574 1562 2946 0 
hist_lookups: 9865 11345 8892 7208 5757 4276 3115 2343 1684 999 638 374 274 203 86 0 0 2459 
hist_lookups_evict: 0 %
hist_lookups_shortlat: 4.13152 %
bb_found_hist: 0 637873 309580 139761 50753 36672 16010 9800 10627 5852 10586 4564 2864 2206 3906 2233 1233 609 85 148 165 112 109 130 92 0 98 0 95 0 15 0 0 0 41 0 50 0 0 0 38 0 0 0 0 0 0 38 0 0 0 0 0 0 0 0 0 0 0 0 0 0 0 0 
bb_found_summary: 2732150 1246345 2.19213
entangled_found_hist: 0 301705 423026 455157 129567 24332 1094 0 
entangled_found_summary: 3159720 1334881 2.36704
bb_ent_found_hist: 0 1127158 568545 395869 97422 71828 49156 15095 19597 2714 10944 9177 4307 25478 3155 5855 2018 2808 66 331 304 161 59 157 0 0 76 0 1127 0 13 0 0 0 146 0 125 0 0 0 74 0 0 0 0 0 0 38 0 0 0 0 0 0 0 0 0 0 0 0 0 0 0 0 
bb_ent_found_summary: 5657769 2413803 2.34392

DRAM Statistics
 CHANNEL 0
 RQ ROW_BUFFER_HIT:       7286  ROW_BUFFER_MISS:      38699
 DBUS AVG_CONGESTED_CYCLE:    3.81805
 WQ ROW_BUFFER_HIT:       2736  ROW_BUFFER_MISS:      10986  FULL:          0


CPU 0 Branch Prediction Accuracy: 96.4059% MPKI: 7.9138 Average ROB Occupancy at Mispredict: 207.621
Branch type MPKI
BRANCH_DIRECT_JUMP: 0.22428
BRANCH_INDIRECT: 0.34604
BRANCH_CONDITIONAL: 5.86076
BRANCH_DIRECT_CALL: 0.41356
BRANCH_INDIRECT_CALL: 0.12748
BRANCH_RETURN: 0.94168

