
*** ChampSim Multicore Out-of-Order Simulator ***

Warmup Instructions: 25000000
Simulation Instructions: 25000000
Number of CPUs: 1
Off-chip DRAM Size: 4 GiB Channels: 1 Width: 64-bit Data Rate: 3200 MT/s

VirtualMemory physical capacity: 8588881920 num_ppages: 2096895
VirtualMemory page size: 4096 log2_page_size: 12

CPU 0 runs ipc1_public/server_002.champsimtrace.xz
Basic BTB sets: 1024 ways: 8 indirect buffer size: 4096 RAS size: 64
cpu0_STLB next line prefetcher
cpu0_L1D next line prefetcher
WARNING: The extended signature CACHE::prefetch_line(ip, base_addr, pf_addr, fill_this_level, prefetch_metadata) is deprecated.
WARNING: Use CACHE::prefetch_line(pf_addr, fill_this_level, prefetch_metadata) instead.
Heartbeat CPU 0 instructions: 10000001 cycles: 2504070 heartbeat IPC: 3.9935 cumulative IPC: 3.9935 (Simulation time: 0 hr 0 min 50 sec) 
Heartbeat CPU 0 instructions: 20000002 cycles: 5033580 heartbeat IPC: 3.95334 cumulative IPC: 3.97332 (Simulation time: 0 hr 1 min 41 sec) 

Warmup complete CPU 0 instructions: 25000002 cycles: 6283580 (Simulation time: 0 hr 2 min 6 sec) 

Heartbeat CPU 0 instructions: 30000001 cycles: 10273095 heartbeat IPC: 1.90857 cumulative IPC: 1.25328 (Simulation time: 0 hr 2 min 57 sec) 
Heartbeat CPU 0 instructions: 40000004 cycles: 17626329 heartbeat IPC: 1.35995 cumulative IPC: 1.32243 (Simulation time: 0 hr 4 min 36 sec) 
