
*** ChampSim Multicore Out-of-Order Simulator ***

Warmup Instructions: 25000000
Simulation Instructions: 25000000
Number of CPUs: 1
Off-chip DRAM Size: 4 GiB Channels: 1 Width: 64-bit Data Rate: 3200 MT/s

VirtualMemory physical capacity: 8588881920 num_ppages: 2096895
VirtualMemory page size: 4096 log2_page_size: 12

CPU 0 runs ipc1_public/server_001.champsimtrace.xz
Basic BTB sets: 1024 ways: 8 indirect buffer size: 4096 RAS size: 64
CPU 0 Entangling prefetcher
cpu0_STLB arbitrary stride prefetcher
cpu0_L1D next line prefetcher
WARNING: The extended signature CACHE::prefetch_line(ip, base_addr, pf_addr, fill_this_level, prefetch_metadata) is deprecated.
WARNING: Use CACHE::prefetch_line(pf_addr, fill_this_level, prefetch_metadata) instead.
Heartbeat CPU 0 instructions: 10000003 cycles: 2533533 heartbeat IPC: 3.94706 cumulative IPC: 3.94706 (Simulation time: 0 hr 0 min 44 sec) 
Heartbeat CPU 0 instructions: 20000003 cycles: 5076003 heartbeat IPC: 3.93318 cumulative IPC: 3.94011 (Simulation time: 0 hr 1 min 29 sec) 

Warmup complete CPU 0 instructions: 25000003 cycles: 6346789 (Simulation time: 0 hr 1 min 52 sec) 

Heartbeat CPU 0 instructions: 30000003 cycles: 9507757 heartbeat IPC: 2.25644 cumulative IPC: 1.58179 (Simulation time: 0 hr 2 min 29 sec) 
Heartbeat CPU 0 instructions: 40000001 cycles: 17015706 heartbeat IPC: 1.33192 cumulative IPC: 1.40595 (Simulation time: 0 hr 3 min 57 sec) 
Heartbeat CPU 0 instructions: 50000004 cycles: 24095226 heartbeat IPC: 1.41253 cumulative IPC: 1.40857 (Simulation time: 0 hr 5 min 25 sec) 
Finished CPU 0 instructions: 25000001 cycles: 17748437 cumulative IPC: 1.40857 (Simulation time: 0 hr 5 min 25 sec) 

ChampSim completed all CPUs

Region of Interest Statistics

CPU 0 cumulative IPC: 1.40857 instructions: 25000001 cycles: 17748437
cpu0_DTLB TOTAL     ACCESS:    4764294  HIT:    4609248  MISS:     155046
cpu0_DTLB LOAD      ACCESS:    2992369  HIT:    2847910  MISS:     144459
cpu0_DTLB RFO       ACCESS:    1771925  HIT:    1761338  MISS:      10587
cpu0_DTLB PREFETCH  ACCESS:          0  HIT:          0  MISS:          0
cpu0_DTLB WRITEBACK ACCESS:          0  HIT:          0  MISS:          0
cpu0_DTLB TRANSLATION ACCESS:          0  HIT:          0  MISS:          0
cpu0_DTLB PREFETCH  REQUESTED:          0  ISSUED:          0  USEFUL:          0  USELESS:          0
cpu0_DTLB AVERAGE MISS LATENCY: 14.4421 cycles
cpu0_ITLB TOTAL     ACCESS:    1205460  HIT:    1153618  MISS:      51842
cpu0_ITLB LOAD      ACCESS:    1205460  HIT:    1153618  MISS:      51842
cpu0_ITLB RFO       ACCESS:          0  HIT:          0  MISS:          0
cpu0_ITLB PREFETCH  ACCESS:          0  HIT:          0  MISS:          0
cpu0_ITLB WRITEBACK ACCESS:          0  HIT:          0  MISS:          0
cpu0_ITLB TRANSLATION ACCESS:          0  HIT:          0  MISS:          0
cpu0_ITLB PREFETCH  REQUESTED:          0  ISSUED:          0  USEFUL:          0  USELESS:          0
cpu0_ITLB AVERAGE MISS LATENCY: 10.2969 cycles
cpu0_L1I TOTAL     ACCESS:    9833078  HIT:    9461592  MISS:     371486
cpu0_L1I LOAD      ACCESS:    2586081  HIT:    2550614  MISS:      35467
cpu0_L1I RFO       ACCESS:          0  HIT:          0  MISS:          0
cpu0_L1I PREFETCH  ACCESS:    7246997  HIT:    6910978  MISS:     336019
cpu0_L1I WRITEBACK ACCESS:          0  HIT:          0  MISS:          0
cpu0_L1I TRANSLATION ACCESS:          0  HIT:          0  MISS:          0
cpu0_L1I PREFETCH  REQUESTED:    9117552  ISSUED:    7266651  USEFUL:     313174  USELESS:      34138
cpu0_L1I AVERAGE MISS LATENCY: 34.5959 cycles
cpu0_STLB TOTAL     ACCESS:     206888  HIT:     191432  MISS:      15456
cpu0_STLB LOAD      ACCESS:     196301  HIT:     181819  MISS:      14482
cpu0_STLB RFO       ACCESS:      10587  HIT:       9613  MISS:        974
cpu0_STLB PREFETCH  ACCESS:          0  HIT:          0  MISS:          0
cpu0_STLB WRITEBACK ACCESS:          0  HIT:          0  MISS:          0
cpu0_STLB TRANSLATION ACCESS:          0  HIT:          0  MISS:          0
cpu0_STLB PREFETCH  REQUESTED:        545  ISSUED:         66  USEFUL:          0  USELESS:          0
cpu0_STLB AVERAGE MISS LATENCY: 58.6416 cycles
cpu0_L1D TOTAL     ACCESS:    8570366  HIT:    8292568  MISS:     277798
cpu0_L1D LOAD      ACCESS:    3020024  HIT:    2903427  MISS:     116597
cpu0_L1D RFO       ACCESS:    2603803  HIT:    2557568  MISS:      46235
cpu0_L1D PREFETCH  ACCESS:    2931487  HIT:    2819283  MISS:     112204
cpu0_L1D WRITEBACK ACCESS:          0  HIT:          0  MISS:          0
cpu0_L1D TRANSLATION ACCESS:      15052  HIT:      12290  MISS:       2762
cpu0_L1D PREFETCH  REQUESTED:    3044099  ISSUED:    3032548  USEFUL:     112781  USELESS:      24625
cpu0_L1D AVERAGE MISS LATENCY: 163.055 cycles
cpu0_L2C TOTAL     ACCESS:     758125  HIT:     494611  MISS:     263514
cpu0_L2C LOAD      ACCESS:     116443  HIT:      52125  MISS:      64318
cpu0_L2C RFO       ACCESS:      45145  HIT:       4913  MISS:      40232
cpu0_L2C PREFETCH  ACCESS:     484927  HIT:     327253  MISS:     157674
cpu0_L2C WRITEBACK ACCESS:     108848  HIT:     108485  MISS:        363
cpu0_L2C TRANSLATION ACCESS:       2762  HIT:       1835  MISS:        927
cpu0_L2C PREFETCH  REQUESTED:          0  ISSUED:          0  USEFUL:          0  USELESS:          0
cpu0_L2C AVERAGE MISS LATENCY: 214.026 cycles
LLC TOTAL     ACCESS:     355291  HIT:     219005  MISS:     136286
LLC LOAD      ACCESS:      64318  HIT:      35299  MISS:      29019
LLC RFO       ACCESS:      40231  HIT:       4273  MISS:      35958
LLC PREFETCH  ACCESS:     157671  HIT:      86504  MISS:      71167
LLC WRITEBACK ACCESS:      92144  HIT:      92119  MISS:         25
LLC TRANSLATION ACCESS:        927  HIT:        810  MISS:        117
LLC PREFETCH  REQUESTED:          0  ISSUED:          0  USEFUL:          0  USELESS:          0
LLC AVERAGE MISS LATENCY: 373.271 cycles
CPU 0 L1I Entangling prefetcher final stats
IP accesses: 1f9c 7e700 26949 / 2587660
IP misses: a2d 28b40 545 / 37046
IP hits: 0 0 0 / 0
IP late: 29cf a73c0 344 / 25336
IP wrong: 37ed dfb40 478 / 75352
miss rate: 0.0143164
coverage: 0
coverage_late: 0.683906
accuracy: 0
accuracy_late: 0.251629
discarded: 0
evicts entangled j table: 0
evicts entangled k table: 5720
max bb size: 111
formats: 559 1553 5704 1097 764 1716 0 
hist_lookups: 3806 4673 3981 3356 2665 2039 1553 1236 904 643 479 346 254 172 68 0 27 1549 
hist_lookups_evict: 0.0972938 %
hist_lookups_shortlat: 5.58178 %
bb_found_hist: 0 410743 192717 102215 103015 57233 35686 21134 24781 14598 4123 2215 3526 6541 6265 341 2873 2963 30 352 488 1585 407 0 0 5 8 9 0 0 0 0 0 8 0 0 0 0 0 0 0 0 1 0 0 0 0 6 0 0 0 0 0 0 0 0 0 0 0 0 0 0 0 0 
bb_found_summary: 2935226 993868 2.95334
entangled_found_hist: 0 234386 307771 364551 17238 2636 413 0 
entangled_found_summary: 2028191 926995 2.18792
bb_ent_found_hist: 0 735381 314731 146851 124990 108938 77609 16911 22680 11780 6382 2947 1184 10237 1525 749 7145 4306 159 622 930 3108 1018 0 0 708 8 27 0 0 0 0 0 24 0 0 0 0 0 0 0 0 0 0 0 0 0 14 0 0 0 0 0 0 0 0 0 0 0 0 0 0 0 0 
bb_ent_found_summary: 4326201 1600964 2.70225

DRAM Statistics
 CHANNEL 0
 RQ ROW_BUFFER_HIT:      25212  ROW_BUFFER_MISS:     110998
 DBUS AVG_CONGESTED_CYCLE:    3.92583
 WQ ROW_BUFFER_HIT:       9410  ROW_BUFFER_MISS:      64620  FULL:          0


CPU 0 Branch Prediction Accuracy: 96.6016% MPKI: 5.79848 Average ROB Occupancy at Mispredict: 199.52
Branch type MPKI
BRANCH_DIRECT_JUMP: 0.0432
BRANCH_INDIRECT: 0.12976
BRANCH_CONDITIONAL: 4.13252
BRANCH_DIRECT_CALL: 0.06328
BRANCH_INDIRECT_CALL: 0.0208
BRANCH_RETURN: 1.40892

