
*** ChampSim Multicore Out-of-Order Simulator ***

Warmup Instructions: 25000000
Simulation Instructions: 25000000
Number of CPUs: 1
Off-chip DRAM Size: 4 GiB Channels: 1 Width: 64-bit Data Rate: 3200 MT/s

VirtualMemory physical capacity: 8588881920 num_ppages: 2096895
VirtualMemory page size: 4096 log2_page_size: 12

CPU 0 runs ipc1_public/server_001.champsimtrace.xz
Basic BTB sets: 1024 ways: 8 indirect buffer size: 4096 RAS size: 64
CPU 0 Improved Entangling prefetcher
cpu0_L1D next line prefetcher
WARNING: The extended signature CACHE::prefetch_line(ip, base_addr, pf_addr, fill_this_level, prefetch_metadata) is deprecated.
WARNING: Use CACHE::prefetch_line(pf_addr, fill_this_level, prefetch_metadata) instead.
Heartbeat CPU 0 instructions: 10000003 cycles: 2541330 heartbeat IPC: 3.93495 cumulative IPC: 3.93495 (Simulation time: 0 hr 0 min 23 sec) 
Heartbeat CPU 0 instructions: 20000002 cycles: 5098617 heartbeat IPC: 3.91039 cumulative IPC: 3.92263 (Simulation time: 0 hr 0 min 46 sec) 

Warmup complete CPU 0 instructions: 25000001 cycles: 6376267 (Simulation time: 0 hr 0 min 58 sec) 

Heartbeat CPU 0 instructions: 30000003 cycles: 9855800 heartbeat IPC: 2.10208 cumulative IPC: 1.43698 (Simulation time: 0 hr 1 min 17 sec) 
Heartbeat CPU 0 instructions: 40000001 cycles: 18023963 heartbeat IPC: 1.22427 cumulative IPC: 1.28781 (Simulation time: 0 hr 1 min 58 sec) 
Heartbeat CPU 0 instructions: 50000003 cycles: 25671320 heartbeat IPC: 1.30764 cumulative IPC: 1.29567 (Simulation time: 0 hr 2 min 38 sec) 
Finished CPU 0 instructions: 25000002 cycles: 19295053 cumulative IPC: 1.29567 (Simulation time: 0 hr 2 min 38 sec) 

ChampSim completed all CPUs

Region of Interest Statistics

CPU 0 cumulative IPC: 1.29567 instructions: 25000002 cycles: 19295053
cpu0_DTLB TOTAL     ACCESS:    4826665  HIT:    4671810  MISS:     154855
cpu0_DTLB LOAD      ACCESS:    3043296  HIT:    2899019  MISS:     144277
cpu0_DTLB RFO       ACCESS:    1783369  HIT:    1772791  MISS:      10578
cpu0_DTLB PREFETCH  ACCESS:          0  HIT:          0  MISS:          0
cpu0_DTLB WRITEBACK ACCESS:          0  HIT:          0  MISS:          0
cpu0_DTLB TRANSLATION ACCESS:          0  HIT:          0  MISS:          0
cpu0_DTLB PREFETCH  REQUESTED:          0  ISSUED:          0  USEFUL:          0  USELESS:          0
cpu0_DTLB AVERAGE MISS LATENCY: 14.4237 cycles
cpu0_ITLB TOTAL     ACCESS:    1204964  HIT:    1153131  MISS:      51833
cpu0_ITLB LOAD      ACCESS:    1204964  HIT:    1153131  MISS:      51833
cpu0_ITLB RFO       ACCESS:          0  HIT:          0  MISS:          0
cpu0_ITLB PREFETCH  ACCESS:          0  HIT:          0  MISS:          0
cpu0_ITLB WRITEBACK ACCESS:          0  HIT:          0  MISS:          0
cpu0_ITLB TRANSLATION ACCESS:          0  HIT:          0  MISS:          0
cpu0_ITLB PREFETCH  REQUESTED:          0  ISSUED:          0  USEFUL:          0  USELESS:          0
cpu0_ITLB AVERAGE MISS LATENCY: 10.1422 cycles
cpu0_L1I TOTAL     ACCESS:    2731485  HIT:    2466254  MISS:     265231
cpu0_L1I LOAD      ACCESS:    2578636  HIT:    2325377  MISS:     253259
cpu0_L1I RFO       ACCESS:          0  HIT:          0  MISS:          0
cpu0_L1I PREFETCH  ACCESS:     152849  HIT:     140877  MISS:      11972
cpu0_L1I WRITEBACK ACCESS:          0  HIT:          0  MISS:          0
cpu0_L1I TRANSLATION ACCESS:          0  HIT:          0  MISS:          0
cpu0_L1I PREFETCH  REQUESTED:     166933  ISSUED:     158264  USEFUL:      12736  USELESS:       1078
cpu0_L1I AVERAGE MISS LATENCY: 33.9752 cycles
cpu0_STLB TOTAL     ACCESS:     206688  HIT:     191234  MISS:      15454
cpu0_STLB LOAD      ACCESS:     196110  HIT:     181631  MISS:      14479
cpu0_STLB RFO       ACCESS:      10578  HIT:       9603  MISS:        975
cpu0_STLB PREFETCH  ACCESS:          0  HIT:          0  MISS:          0
cpu0_STLB WRITEBACK ACCESS:          0  HIT:          0  MISS:          0
cpu0_STLB TRANSLATION ACCESS:          0  HIT:          0  MISS:          0
cpu0_STLB PREFETCH  REQUESTED:          0  ISSUED:          0  USEFUL:          0  USELESS:          0
cpu0_STLB AVERAGE MISS LATENCY: 57.8835 cycles
cpu0_L1D TOTAL     ACCESS:    8663456  HIT:    8385621  MISS:     277835
cpu0_L1D LOAD      ACCESS:    3063219  HIT:    2947535  MISS:     115684
cpu0_L1D RFO       ACCESS:    2607619  HIT:    2561319  MISS:      46300
cpu0_L1D PREFETCH  ACCESS:    2977565  HIT:    2864472  MISS:     113093
cpu0_L1D WRITEBACK ACCESS:          0  HIT:          0  MISS:          0
cpu0_L1D TRANSLATION ACCESS:      15053  HIT:      12295  MISS:       2758
cpu0_L1D PREFETCH  REQUESTED:    3086418  ISSUED:    3075166  USEFUL:     113359  USELESS:      24155
cpu0_L1D AVERAGE MISS LATENCY: 151.731 cycles
cpu0_L2C TOTAL     ACCESS:     651908  HIT:     398132  MISS:     253776
cpu0_L2C LOAD      ACCESS:     343659  HIT:     224018  MISS:     119641
cpu0_L2C RFO       ACCESS:      45207  HIT:       4947  MISS:      40260
cpu0_L2C PREFETCH  ACCESS:     151436  HIT:      58727  MISS:      92709
cpu0_L2C WRITEBACK ACCESS:     108848  HIT:     108599  MISS:        249
cpu0_L2C TRANSLATION ACCESS:       2758  HIT:       1841  MISS:        917
cpu0_L2C PREFETCH  REQUESTED:          0  ISSUED:          0  USEFUL:          0  USELESS:          0
cpu0_L2C AVERAGE MISS LATENCY: 190.137 cycles
LLC TOTAL     ACCESS:     345065  HIT:     209203  MISS:     135862
LLC LOAD      ACCESS:     119641  HIT:      75663  MISS:      43978
LLC RFO       ACCESS:      40260  HIT:       4128  MISS:      36132
LLC PREFETCH  ACCESS:      92709  HIT:      37145  MISS:      55564
LLC WRITEBACK ACCESS:      91538  HIT:      91489  MISS:         49
LLC TRANSLATION ACCESS:        917  HIT:        778  MISS:        139
LLC PREFETCH  REQUESTED:          0  ISSUED:          0  USEFUL:          0  USELESS:          0
LLC AVERAGE MISS LATENCY: 315.964 cycles
CPU 0 L1I EPI prefetcher final stats
IP accesses: 1f9b 7e6c0 65002 / 5688709
IP misses: 73b7 1cedc0 1814 / 516922
IP hits: 0 0 0 / 0
IP late: 3a7f e9fc0 172 / 7230
IP wrong: abc5 2af140 109 / 2441
miss rate: 0.0908681
coverage: 0
coverage_late: 0.0139866
accuracy: 0
accuracy_late: 0.747596
discarded: 0
evicts entangled j table: 0
evicts entangled k table: 24
max bb size: 10
max xpq size: 0
formats: 28 71 193 58 32 188 0 
history table size: 0 bytes; 0 KB
cycles_no_operate: 0 %
bb_found_hist: 0 49721 27690 14062 3417 4933 1993 26 0 18 13 0 0 0 0 0 0 0 0 0 0 0 0 0 0 0 0 0 0 0 0 0 0 0 0 0 0 0 0 0 0 0 0 0 0 0 0 0 0 0 0 0 0 0 0 0 0 0 0 0 0 0 0 0 
bb_found_summary: 198052 101873 1.94411
entangled_found_hist: 0 9071 6424 2980 199 205 133 0 
entangled_found_summary: 33478 19012 1.76089
bb_ent_found_hist: 0 12375 4898 3111 1455 125 273 65 0 22 13 0 0 0 0 0 0 0 0 0 0 0 0 0 0 0 0 0 0 0 0 0 0 0 0 0 0 0 0 0 0 0 0 0 0 0 0 0 0 0 0 0 0 0 0 0 0 0 0 0 0 0 0 0 
bb_ent_found_summary: 40370 22337 1.80732
percent_wrong_path_info_recorded: 99.8528%

DRAM Statistics
 CHANNEL 0
 RQ ROW_BUFFER_HIT:      24639  ROW_BUFFER_MISS:     111123
 DBUS AVG_CONGESTED_CYCLE:    3.90649
 WQ ROW_BUFFER_HIT:      11266  ROW_BUFFER_MISS:      63079  FULL:          0


CPU 0 Branch Prediction Accuracy: 96.6016% MPKI: 5.79848 Average ROB Occupancy at Mispredict: 177.647
Branch type MPKI
BRANCH_DIRECT_JUMP: 0.0432
BRANCH_INDIRECT: 0.12976
BRANCH_CONDITIONAL: 4.13252
BRANCH_DIRECT_CALL: 0.06328
BRANCH_INDIRECT_CALL: 0.0208
BRANCH_RETURN: 1.40892

