
*** ChampSim Multicore Out-of-Order Simulator ***

Warmup Instructions: 25000000
Simulation Instructions: 25000000
Number of CPUs: 1
Off-chip DRAM Size: 4 GiB Channels: 1 Width: 64-bit Data Rate: 3200 MT/s

VirtualMemory physical capacity: 8588881920 num_ppages: 2096895
VirtualMemory page size: 4096 log2_page_size: 12

CPU 0 runs ipc1_public/server_004.champsimtrace.xz
Basic BTB sets: 1024 ways: 8 indirect buffer size: 4096 RAS size: 64
CPU 0 next line instruction prefetcher
cpu0_L1D next line prefetcher
WARNING: The extended signature CACHE::prefetch_line(ip, base_addr, pf_addr, fill_this_level, prefetch_metadata) is deprecated.
WARNING: Use CACHE::prefetch_line(pf_addr, fill_this_level, prefetch_metadata) instead.
Heartbeat CPU 0 instructions: 10000002 cycles: 2621733 heartbeat IPC: 3.81427 cumulative IPC: 3.81427 (Simulation time: 0 hr 0 min 19 sec) 
Heartbeat CPU 0 instructions: 20000003 cycles: 5250655 heartbeat IPC: 3.80384 cumulative IPC: 3.80905 (Simulation time: 0 hr 0 min 40 sec) 

Warmup complete CPU 0 instructions: 25000001 cycles: 6913270 (Simulation time: 0 hr 0 min 58 sec) 

Heartbeat CPU 0 instructions: 30000000 cycles: 18142959 heartbeat IPC: 0.775656 cumulative IPC: 0.445248 (Simulation time: 0 hr 1 min 39 sec) 
Heartbeat CPU 0 instructions: 40000000 cycles: 29338926 heartbeat IPC: 0.893179 cumulative IPC: 0.668877 (Simulation time: 0 hr 2 min 27 sec) 
Heartbeat CPU 0 instructions: 50000000 cycles: 36580124 heartbeat IPC: 1.38099 cumulative IPC: 0.842691 (Simulation time: 0 hr 3 min 2 sec) 
Finished CPU 0 instructions: 25000003 cycles: 29666855 cumulative IPC: 0.842691 (Simulation time: 0 hr 3 min 2 sec) 

ChampSim completed all CPUs

Region of Interest Statistics

CPU 0 cumulative IPC: 0.842691 instructions: 25000003 cycles: 29666855
cpu0_DTLB TOTAL     ACCESS:    5294065  HIT:    4269582  MISS:    1024483
cpu0_DTLB LOAD      ACCESS:    3805785  HIT:    2796017  MISS:    1009768
cpu0_DTLB RFO       ACCESS:    1488280  HIT:    1473565  MISS:      14715
cpu0_DTLB PREFETCH  ACCESS:          0  HIT:          0  MISS:          0
cpu0_DTLB WRITEBACK ACCESS:          0  HIT:          0  MISS:          0
cpu0_DTLB TRANSLATION ACCESS:          0  HIT:          0  MISS:          0
cpu0_DTLB PREFETCH  REQUESTED:          0  ISSUED:          0  USEFUL:          0  USELESS:          0
cpu0_DTLB AVERAGE MISS LATENCY: 9.55934 cycles
cpu0_ITLB TOTAL     ACCESS:    1827813  HIT:    1751202  MISS:      76611
cpu0_ITLB LOAD      ACCESS:    1827813  HIT:    1751202  MISS:      76611
cpu0_ITLB RFO       ACCESS:          0  HIT:          0  MISS:          0
cpu0_ITLB PREFETCH  ACCESS:          0  HIT:          0  MISS:          0
cpu0_ITLB WRITEBACK ACCESS:          0  HIT:          0  MISS:          0
cpu0_ITLB TRANSLATION ACCESS:          0  HIT:          0  MISS:          0
cpu0_ITLB PREFETCH  REQUESTED:          0  ISSUED:          0  USEFUL:          0  USELESS:          0
cpu0_ITLB AVERAGE MISS LATENCY: 11.1688 cycles
cpu0_L1I TOTAL     ACCESS:    4941377  HIT:    4288191  MISS:     653186
cpu0_L1I LOAD      ACCESS:    2612676  HIT:    2202357  MISS:     410319
cpu0_L1I RFO       ACCESS:          0  HIT:          0  MISS:          0
cpu0_L1I PREFETCH  ACCESS:    2328701  HIT:    2085834  MISS:     242867
cpu0_L1I WRITEBACK ACCESS:          0  HIT:          0  MISS:          0
cpu0_L1I TRANSLATION ACCESS:          0  HIT:          0  MISS:          0
cpu0_L1I PREFETCH  REQUESTED:    2634298  ISSUED:    2633484  USEFUL:     201831  USELESS:      78254
cpu0_L1I AVERAGE MISS LATENCY: 21.5112 cycles
cpu0_STLB TOTAL     ACCESS:    1101094  HIT:    1051663  MISS:      49431
cpu0_STLB LOAD      ACCESS:    1086379  HIT:    1038798  MISS:      47581
cpu0_STLB RFO       ACCESS:      14715  HIT:      12865  MISS:       1850
cpu0_STLB PREFETCH  ACCESS:          0  HIT:          0  MISS:          0
cpu0_STLB WRITEBACK ACCESS:          0  HIT:          0  MISS:          0
cpu0_STLB TRANSLATION ACCESS:          0  HIT:          0  MISS:          0
cpu0_STLB PREFETCH  REQUESTED:          0  ISSUED:          0  USEFUL:          0  USELESS:          0
cpu0_STLB AVERAGE MISS LATENCY: 14.7757 cycles
cpu0_L1D TOTAL     ACCESS:   11451220  HIT:    8734795  MISS:    2716425
cpu0_L1D LOAD      ACCESS:    4582863  HIT:    3230793  MISS:    1352070
cpu0_L1D RFO       ACCESS:    2297737  HIT:    2237345  MISS:      60392
cpu0_L1D PREFETCH  ACCESS:    4522620  HIT:    3225535  MISS:    1297085
cpu0_L1D WRITEBACK ACCESS:          0  HIT:          0  MISS:          0
cpu0_L1D TRANSLATION ACCESS:      48000  HIT:      41122  MISS:       6878
cpu0_L1D PREFETCH  REQUESTED:    4598527  ISSUED:    4585582  USEFUL:     144102  USELESS:    1163564
cpu0_L1D AVERAGE MISS LATENCY: 15.3454 cycles
cpu0_L2C TOTAL     ACCESS:    3494792  HIT:    2961602  MISS:     533190
cpu0_L2C LOAD      ACCESS:    1714822  HIT:    1454566  MISS:     260256
cpu0_L2C RFO       ACCESS:      60083  HIT:      40073  MISS:      20010
cpu0_L2C PREFETCH  ACCESS:    1587794  HIT:    1336805  MISS:     250989
cpu0_L2C WRITEBACK ACCESS:     125215  HIT:     124747  MISS:        468
cpu0_L2C TRANSLATION ACCESS:       6878  HIT:       5411  MISS:       1467
cpu0_L2C PREFETCH  REQUESTED:          0  ISSUED:          0  USEFUL:          0  USELESS:          0
cpu0_L2C AVERAGE MISS LATENCY: 37.692 cycles
LLC TOTAL     ACCESS:     595555  HIT:     547954  MISS:      47601
LLC LOAD      ACCESS:     260255  HIT:     244205  MISS:      16050
LLC RFO       ACCESS:      20006  HIT:      15871  MISS:       4135
LLC PREFETCH  ACCESS:     250988  HIT:     223665  MISS:      27323
LLC WRITEBACK ACCESS:      62839  HIT:      62825  MISS:         14
LLC TRANSLATION ACCESS:       1467  HIT:       1388  MISS:         79
LLC PREFETCH  REQUESTED:          0  ISSUED:          0  USEFUL:          0  USELESS:          0
LLC AVERAGE MISS LATENCY: 187.154 cycles

DRAM Statistics
 CHANNEL 0
 RQ ROW_BUFFER_HIT:       7335  ROW_BUFFER_MISS:      40244
 DBUS AVG_CONGESTED_CYCLE:    3.73354
 WQ ROW_BUFFER_HIT:       3141  ROW_BUFFER_MISS:      11076  FULL:          0


CPU 0 Branch Prediction Accuracy: 96.4058% MPKI: 7.9138 Average ROB Occupancy at Mispredict: 172.273
Branch type MPKI
BRANCH_DIRECT_JUMP: 0.22428
BRANCH_INDIRECT: 0.34604
BRANCH_CONDITIONAL: 5.86076
BRANCH_DIRECT_CALL: 0.41356
BRANCH_INDIRECT_CALL: 0.12748
BRANCH_RETURN: 0.94168

