
*** ChampSim Multicore Out-of-Order Simulator ***

Warmup Instructions: 25000000
Simulation Instructions: 25000000
Number of CPUs: 1
Off-chip DRAM Size: 4 GiB Channels: 1 Width: 64-bit Data Rate: 3200 MT/s

VirtualMemory physical capacity: 8588881920 num_ppages: 2096895
VirtualMemory page size: 4096 log2_page_size: 12

CPU 0 runs ipc1_public/server_004.champsimtrace.xz
Basic BTB sets: 1024 ways: 8 indirect buffer size: 4096 RAS size: 64
CPU 0 Entangling prefetcher
cpu0_L1D next line prefetcher
WARNING: The extended signature CACHE::prefetch_line(ip, base_addr, pf_addr, fill_this_level, prefetch_metadata) is deprecated.
WARNING: Use CACHE::prefetch_line(pf_addr, fill_this_level, prefetch_metadata) instead.
Heartbeat CPU 0 instructions: 10000003 cycles: 2546432 heartbeat IPC: 3.92706 cumulative IPC: 3.92706 (Simulation time: 0 hr 0 min 25 sec) 
Heartbeat CPU 0 instructions: 20000003 cycles: 5113254 heartbeat IPC: 3.89587 cumulative IPC: 3.9114 (Simulation time: 0 hr 0 min 51 sec) 

Warmup complete CPU 0 instructions: 25000001 cycles: 6768013 (Simulation time: 0 hr 1 min 10 sec) 

Heartbeat CPU 0 instructions: 30000000 cycles: 17997694 heartbeat IPC: 0.77613 cumulative IPC: 0.445249 (Simulation time: 0 hr 1 min 55 sec) 
Heartbeat CPU 0 instructions: 40000000 cycles: 28185301 heartbeat IPC: 0.981585 cumulative IPC: 0.700369 (Simulation time: 0 hr 2 min 49 sec) 
Heartbeat CPU 0 instructions: 50000000 cycles: 33991625 heartbeat IPC: 1.72226 cumulative IPC: 0.91832 (Simulation time: 0 hr 3 min 30 sec) 
Finished CPU 0 instructions: 25000003 cycles: 27223613 cumulative IPC: 0.918321 (Simulation time: 0 hr 3 min 30 sec) 

ChampSim completed all CPUs

Region of Interest Statistics

CPU 0 cumulative IPC: 0.918321 instructions: 25000003 cycles: 27223613
cpu0_DTLB TOTAL     ACCESS:    5199433  HIT:    4174493  MISS:    1024940
cpu0_DTLB LOAD      ACCESS:    3729886  HIT:    2719810  MISS:    1010076
cpu0_DTLB RFO       ACCESS:    1469547  HIT:    1454683  MISS:      14864
cpu0_DTLB PREFETCH  ACCESS:          0  HIT:          0  MISS:          0
cpu0_DTLB WRITEBACK ACCESS:          0  HIT:          0  MISS:          0
cpu0_DTLB TRANSLATION ACCESS:          0  HIT:          0  MISS:          0
cpu0_DTLB PREFETCH  REQUESTED:          0  ISSUED:          0  USEFUL:          0  USELESS:          0
cpu0_DTLB AVERAGE MISS LATENCY: 9.54844 cycles
cpu0_ITLB TOTAL     ACCESS:    1826543  HIT:    1749932  MISS:      76611
cpu0_ITLB LOAD      ACCESS:    1826543  HIT:    1749932  MISS:      76611
cpu0_ITLB RFO       ACCESS:          0  HIT:          0  MISS:          0
cpu0_ITLB PREFETCH  ACCESS:          0  HIT:          0  MISS:          0
cpu0_ITLB WRITEBACK ACCESS:          0  HIT:          0  MISS:          0
cpu0_ITLB TRANSLATION ACCESS:          0  HIT:          0  MISS:          0
cpu0_ITLB PREFETCH  REQUESTED:          0  ISSUED:          0  USEFUL:          0  USELESS:          0
cpu0_ITLB AVERAGE MISS LATENCY: 11.2063 cycles
cpu0_L1I TOTAL     ACCESS:    9866976  HIT:    9155493  MISS:     711483
cpu0_L1I LOAD      ACCESS:    2630218  HIT:    2562589  MISS:      67629
cpu0_L1I RFO       ACCESS:          0  HIT:          0  MISS:          0
cpu0_L1I PREFETCH  ACCESS:    7236758  HIT:    6592904  MISS:     643854
cpu0_L1I WRITEBACK ACCESS:          0  HIT:          0  MISS:          0
cpu0_L1I TRANSLATION ACCESS:          0  HIT:          0  MISS:          0
cpu0_L1I PREFETCH  REQUESTED:   10645057  ISSUED:    7268501  USEFUL:     564159  USELESS:      97441
cpu0_L1I AVERAGE MISS LATENCY: 20.1439 cycles
cpu0_STLB TOTAL     ACCESS:    1101551  HIT:    1052113  MISS:      49438
cpu0_STLB LOAD      ACCESS:    1086687  HIT:    1039073  MISS:      47614
cpu0_STLB RFO       ACCESS:      14864  HIT:      13040  MISS:       1824
cpu0_STLB PREFETCH  ACCESS:          0  HIT:          0  MISS:          0
cpu0_STLB WRITEBACK ACCESS:          0  HIT:          0  MISS:          0
cpu0_STLB TRANSLATION ACCESS:          0  HIT:          0  MISS:          0
cpu0_STLB PREFETCH  REQUESTED:          0  ISSUED:          0  USEFUL:          0  USELESS:          0
cpu0_STLB AVERAGE MISS LATENCY: 14.5988 cycles
cpu0_L1D TOTAL     ACCESS:   11290707  HIT:    8574420  MISS:    2716287
cpu0_L1D LOAD      ACCESS:    4507520  HIT:    3153272  MISS:    1354248
cpu0_L1D RFO       ACCESS:    2291015  HIT:    2230856  MISS:      60159
cpu0_L1D PREFETCH  ACCESS:    4444248  HIT:    3149239  MISS:    1295009
cpu0_L1D WRITEBACK ACCESS:          0  HIT:          0  MISS:          0
cpu0_L1D TRANSLATION ACCESS:      47924  HIT:      41053  MISS:       6871
cpu0_L1D PREFETCH  REQUESTED:    4524628  ISSUED:    4510446  USEFUL:     142058  USELESS:    1164808
cpu0_L1D AVERAGE MISS LATENCY: 15.1436 cycles
cpu0_L2C TOTAL     ACCESS:    3552927  HIT:    3056712  MISS:     496215
cpu0_L2C LOAD      ACCESS:    1392463  HIT:    1273319  MISS:     119144
cpu0_L2C RFO       ACCESS:      59842  HIT:      39716  MISS:      20126
cpu0_L2C PREFETCH  ACCESS:    1968558  HIT:    1613735  MISS:     354823
cpu0_L2C WRITEBACK ACCESS:     125193  HIT:     124421  MISS:        772
cpu0_L2C TRANSLATION ACCESS:       6871  HIT:       5521  MISS:       1350
cpu0_L2C PREFETCH  REQUESTED:          0  ISSUED:          0  USEFUL:          0  USELESS:          0
cpu0_L2C AVERAGE MISS LATENCY: 37.1714 cycles
LLC TOTAL     ACCESS:     558490  HIT:     517583  MISS:      40907
LLC LOAD      ACCESS:     119138  HIT:     107163  MISS:      11975
LLC RFO       ACCESS:      20123  HIT:      16323  MISS:       3800
LLC PREFETCH  ACCESS:     354822  HIT:     329756  MISS:      25066
LLC WRITEBACK ACCESS:      63057  HIT:      63042  MISS:         15
LLC TRANSLATION ACCESS:       1350  HIT:       1299  MISS:         51
LLC PREFETCH  REQUESTED:          0  ISSUED:          0  USEFUL:          0  USELESS:          0
LLC AVERAGE MISS LATENCY: 196.499 cycles
CPU 0 L1I Entangling prefetcher final stats
IP accesses: 3a98 ea600 36271 / 2632998
IP misses: 3c2d f0b40 336 / 70409
IP hits: 0 0 0 / 0
IP late: 76f6 1dbd80 286 / 41592
IP wrong: abf3 2afcc0 508 / 194167
miss rate: 0.026741
coverage: 0
coverage_late: 0.59072
accuracy: 0
accuracy_late: 0.176417
discarded: 0
evicts entangled j table: 0
evicts entangled k table: 12423
max bb size: 111
formats: 1109 5107 10916 2417 1546 3061 0 
hist_lookups: 9310 10819 8661 6993 5308 4128 3292 2471 1736 1107 774 426 282 149 74 0 3 2136 
hist_lookups_evict: 0.0052021 %
hist_lookups_shortlat: 3.7039 %
bb_found_hist: 0 629114 314339 141099 49679 36630 16192 9586 10601 5672 10687 4577 3141 2220 3433 2216 1229 620 145 155 151 112 110 130 90 0 96 0 95 0 15 0 0 0 41 0 50 0 0 0 38 0 0 0 0 0 0 38 0 0 0 0 0 0 0 0 0 0 0 0 0 0 0 0 
bb_found_summary: 2728943 1242301 2.19668
entangled_found_hist: 0 326091 366748 454749 125794 37962 984 0 
entangled_found_summary: 3122724 1312328 2.37953
bb_ent_found_hist: 0 1079863 603553 378273 86009 62388 31672 17199 22115 2562 9832 7757 4724 3905 2501 2920 1471 2880 315 317 273 158 26 143 0 0 54 0 1404 0 13 0 0 0 120 0 130 0 0 0 74 0 0 0 0 0 0 38 0 0 0 0 0 0 0 0 0 0 0 0 0 0 0 0 
bb_ent_found_summary: 5109521 2322689 2.19983

DRAM Statistics
 CHANNEL 0
 RQ ROW_BUFFER_HIT:       7301  ROW_BUFFER_MISS:      33586
 DBUS AVG_CONGESTED_CYCLE:    3.80628
 WQ ROW_BUFFER_HIT:       2706  ROW_BUFFER_MISS:      10048  FULL:          0


CPU 0 Branch Prediction Accuracy: 96.4059% MPKI: 7.9138 Average ROB Occupancy at Mispredict: 206.612
Branch type MPKI
BRANCH_DIRECT_JUMP: 0.22428
BRANCH_INDIRECT: 0.34604
BRANCH_CONDITIONAL: 5.86076
BRANCH_DIRECT_CALL: 0.41356
BRANCH_INDIRECT_CALL: 0.12748
BRANCH_RETURN: 0.94168

