
*** ChampSim Multicore Out-of-Order Simulator ***

Warmup Instructions: 25000000
Simulation Instructions: 25000000
Number of CPUs: 1
Off-chip DRAM Size: 4 GiB Channels: 1 Width: 64-bit Data Rate: 3200 MT/s

VirtualMemory physical capacity: 8588881920 num_ppages: 2096895
VirtualMemory page size: 4096 log2_page_size: 12

CPU 0 runs ipc1_public/server_004.champsimtrace.xz
Basic BTB sets: 1024 ways: 8 indirect buffer size: 4096 RAS size: 64
cpu0_STLB next line prefetcher
cpu0_L1D next line prefetcher
WARNING: The extended signature CACHE::prefetch_line(ip, base_addr, pf_addr, fill_this_level, prefetch_metadata) is deprecated.
WARNING: Use CACHE::prefetch_line(pf_addr, fill_this_level, prefetch_metadata) instead.
Heartbeat CPU 0 instructions: 10000002 cycles: 2635328 heartbeat IPC: 3.79459 cumulative IPC: 3.79459 (Simulation time: 0 hr 0 min 37 sec) 
Heartbeat CPU 0 instructions: 20000001 cycles: 5273040 heartbeat IPC: 3.79116 cumulative IPC: 3.79288 (Simulation time: 0 hr 1 min 17 sec) 

Warmup complete CPU 0 instructions: 25000001 cycles: 6937066 (Simulation time: 0 hr 1 min 51 sec) 

Heartbeat CPU 0 instructions: 30000000 cycles: 18166755 heartbeat IPC: 0.775572 cumulative IPC: 0.445248 (Simulation time: 0 hr 3 min 29 sec) 
Heartbeat CPU 0 instructions: 40000000 cycles: 29948098 heartbeat IPC: 0.8488 cumulative IPC: 0.651861 (Simulation time: 0 hr 5 min 15 sec) 
Heartbeat CPU 0 instructions: 50000000 cycles: 37873223 heartbeat IPC: 1.26181 cumulative IPC: 0.808116 (Simulation time: 0 hr 6 min 28 sec) 
Finished CPU 0 instructions: 25000003 cycles: 30936158 cumulative IPC: 0.808116 (Simulation time: 0 hr 6 min 28 sec) 

ChampSim completed all CPUs

Region of Interest Statistics

CPU 0 cumulative IPC: 0.808116 instructions: 25000003 cycles: 30936158
cpu0_DTLB TOTAL     ACCESS:    5317668  HIT:    4293333  MISS:    1024335
cpu0_DTLB LOAD      ACCESS:    3824547  HIT:    2814845  MISS:    1009702
cpu0_DTLB RFO       ACCESS:    1493121  HIT:    1478488  MISS:      14633
cpu0_DTLB PREFETCH  ACCESS:          0  HIT:          0  MISS:          0
cpu0_DTLB WRITEBACK ACCESS:          0  HIT:          0  MISS:          0
cpu0_DTLB TRANSLATION ACCESS:          0  HIT:          0  MISS:          0
cpu0_DTLB PREFETCH  REQUESTED:          0  ISSUED:          0  USEFUL:          0  USELESS:          0
cpu0_DTLB AVERAGE MISS LATENCY: 9.5454 cycles
cpu0_ITLB TOTAL     ACCESS:    1825993  HIT:    1749383  MISS:      76610
cpu0_ITLB LOAD      ACCESS:    1825993  HIT:    1749383  MISS:      76610
cpu0_ITLB RFO       ACCESS:          0  HIT:          0  MISS:          0
cpu0_ITLB PREFETCH  ACCESS:          0  HIT:          0  MISS:          0
cpu0_ITLB WRITEBACK ACCESS:          0  HIT:          0  MISS:          0
cpu0_ITLB TRANSLATION ACCESS:          0  HIT:          0  MISS:          0
cpu0_ITLB PREFETCH  REQUESTED:          0  ISSUED:          0  USEFUL:          0  USELESS:          0
cpu0_ITLB AVERAGE MISS LATENCY: 11.1783 cycles
cpu0_L1I TOTAL     ACCESS:    2609598  HIT:    2129511  MISS:     480087
cpu0_L1I LOAD      ACCESS:    2609598  HIT:    2129511  MISS:     480087
cpu0_L1I RFO       ACCESS:          0  HIT:          0  MISS:          0
cpu0_L1I PREFETCH  ACCESS:          0  HIT:          0  MISS:          0
cpu0_L1I WRITEBACK ACCESS:          0  HIT:          0  MISS:          0
cpu0_L1I TRANSLATION ACCESS:          0  HIT:          0  MISS:          0
cpu0_L1I PREFETCH  REQUESTED:          0  ISSUED:          0  USEFUL:          0  USELESS:          0
cpu0_L1I AVERAGE MISS LATENCY: 24.6881 cycles
cpu0_STLB TOTAL     ACCESS:    1100945  HIT:    1051519  MISS:      49426
cpu0_STLB LOAD      ACCESS:    1086312  HIT:    1038728  MISS:      47584
cpu0_STLB RFO       ACCESS:      14633  HIT:      12791  MISS:       1842
cpu0_STLB PREFETCH  ACCESS:          0  HIT:          0  MISS:          0
cpu0_STLB WRITEBACK ACCESS:          0  HIT:          0  MISS:          0
cpu0_STLB TRANSLATION ACCESS:          0  HIT:          0  MISS:          0
cpu0_STLB PREFETCH  REQUESTED:    1086312  ISSUED:          0  USEFUL:          0  USELESS:          0
cpu0_STLB AVERAGE MISS LATENCY: 14.511 cycles
cpu0_L1D TOTAL     ACCESS:   11490768  HIT:    8774404  MISS:    2716364
cpu0_L1D LOAD      ACCESS:    4600342  HIT:    3249151  MISS:    1351191
cpu0_L1D RFO       ACCESS:    2300187  HIT:    2239751  MISS:      60436
cpu0_L1D PREFETCH  ACCESS:    4542245  HIT:    3244380  MISS:    1297865
cpu0_L1D WRITEBACK ACCESS:          0  HIT:          0  MISS:          0
cpu0_L1D TRANSLATION ACCESS:      47994  HIT:      41122  MISS:       6872
cpu0_L1D PREFETCH  REQUESTED:    4614674  ISSUED:    4601969  USEFUL:     144773  USELESS:    1163278
cpu0_L1D AVERAGE MISS LATENCY: 15.0989 cycles
cpu0_L2C TOTAL     ACCESS:    3321607  HIT:    2857306  MISS:     464301
cpu0_L2C LOAD      ACCESS:    1821355  HIT:    1488735  MISS:     332620
cpu0_L2C RFO       ACCESS:      60088  HIT:      40497  MISS:      19591
cpu0_L2C PREFETCH  ACCESS:    1308104  HIT:    1197892  MISS:     110212
cpu0_L2C WRITEBACK ACCESS:     125188  HIT:     124529  MISS:        659
cpu0_L2C TRANSLATION ACCESS:       6872  HIT:       5653  MISS:       1219
cpu0_L2C PREFETCH  REQUESTED:          0  ISSUED:          0  USEFUL:          0  USELESS:          0
cpu0_L2C AVERAGE MISS LATENCY: 37.985 cycles
LLC TOTAL     ACCESS:     525100  HIT:     481481  MISS:      43619
LLC LOAD      ACCESS:     332616  HIT:     313172  MISS:      19444
LLC RFO       ACCESS:      19587  HIT:      15697  MISS:       3890
LLC PREFETCH  ACCESS:     110211  HIT:      90016  MISS:      20195
LLC WRITEBACK ACCESS:      61467  HIT:      61434  MISS:         33
LLC TRANSLATION ACCESS:       1219  HIT:       1162  MISS:         57
LLC PREFETCH  REQUESTED:          0  ISSUED:          0  USEFUL:          0  USELESS:          0
LLC AVERAGE MISS LATENCY: 181.099 cycles

DRAM Statistics
 CHANNEL 0
 RQ ROW_BUFFER_HIT:       7427  ROW_BUFFER_MISS:      36159
 DBUS AVG_CONGESTED_CYCLE:    3.74652
 WQ ROW_BUFFER_HIT:       3300  ROW_BUFFER_MISS:       9847  FULL:          0


CPU 0 Branch Prediction Accuracy: 96.4058% MPKI: 7.9138 Average ROB Occupancy at Mispredict: 163.952
Branch type MPKI
BRANCH_DIRECT_JUMP: 0.22428
BRANCH_INDIRECT: 0.34604
BRANCH_CONDITIONAL: 5.86076
BRANCH_DIRECT_CALL: 0.41356
BRANCH_INDIRECT_CALL: 0.12748
BRANCH_RETURN: 0.94168

