
*** ChampSim Multicore Out-of-Order Simulator ***

Warmup Instructions: 25000000
Simulation Instructions: 25000000
Number of CPUs: 1
Off-chip DRAM Size: 4 GiB Channels: 1 Width: 64-bit Data Rate: 3200 MT/s

VirtualMemory physical capacity: 8588881920 num_ppages: 2096895
VirtualMemory page size: 4096 log2_page_size: 12

CPU 0 runs ipc1_public/server_003.champsimtrace.xz
Basic BTB sets: 1024 ways: 8 indirect buffer size: 4096 RAS size: 64
CPU 0 Entangling prefetcher
CPU 0 Entangling TLB prefetcher
cpu0_L1D next line prefetcher
WARNING: The extended signature CACHE::prefetch_line(ip, base_addr, pf_addr, fill_this_level, prefetch_metadata) is deprecated.
WARNING: Use CACHE::prefetch_line(pf_addr, fill_this_level, prefetch_metadata) instead.
Heartbeat CPU 0 instructions: 10000000 cycles: 2558590 heartbeat IPC: 3.9084 cumulative IPC: 3.9084 (Simulation time: 0 hr 0 min 25 sec) 
Heartbeat CPU 0 instructions: 20000003 cycles: 5123085 heartbeat IPC: 3.8994 cumulative IPC: 3.9039 (Simulation time: 0 hr 0 min 51 sec) 

Warmup complete CPU 0 instructions: 25000002 cycles: 6396712 (Simulation time: 0 hr 1 min 4 sec) 

Heartbeat CPU 0 instructions: 30000002 cycles: 9206233 heartbeat IPC: 2.44909 cumulative IPC: 1.77966 (Simulation time: 0 hr 1 min 25 sec) 
Heartbeat CPU 0 instructions: 40000004 cycles: 16641737 heartbeat IPC: 1.3449 cumulative IPC: 1.46413 (Simulation time: 0 hr 2 min 11 sec) 
Heartbeat CPU 0 instructions: 50000002 cycles: 24443230 heartbeat IPC: 1.28181 cumulative IPC: 1.38531 (Simulation time: 0 hr 2 min 58 sec) 
Finished CPU 0 instructions: 25000000 cycles: 18046518 cumulative IPC: 1.38531 (Simulation time: 0 hr 2 min 58 sec) 

ChampSim completed all CPUs

Region of Interest Statistics

CPU 0 cumulative IPC: 1.38531 instructions: 25000000 cycles: 18046518
cpu0_DTLB TOTAL     ACCESS:    5130776  HIT:    4913449  MISS:     217327
cpu0_DTLB LOAD      ACCESS:    3615950  HIT:    3411915  MISS:     204035
cpu0_DTLB RFO       ACCESS:    1514826  HIT:    1501534  MISS:      13292
cpu0_DTLB PREFETCH  ACCESS:          0  HIT:          0  MISS:          0
cpu0_DTLB WRITEBACK ACCESS:          0  HIT:          0  MISS:          0
cpu0_DTLB TRANSLATION ACCESS:          0  HIT:          0  MISS:          0
cpu0_DTLB PREFETCH  REQUESTED:          0  ISSUED:          0  USEFUL:          0  USELESS:          0
cpu0_DTLB AVERAGE MISS LATENCY: 11.2355 cycles
cpu0_ITLB TOTAL     ACCESS:    2042285  HIT:    1971808  MISS:      70477
cpu0_ITLB LOAD      ACCESS:    2042285  HIT:    1971808  MISS:      70477
cpu0_ITLB RFO       ACCESS:          0  HIT:          0  MISS:          0
cpu0_ITLB PREFETCH  ACCESS:          0  HIT:          0  MISS:          0
cpu0_ITLB WRITEBACK ACCESS:          0  HIT:          0  MISS:          0
cpu0_ITLB TRANSLATION ACCESS:          0  HIT:          0  MISS:          0
cpu0_ITLB PREFETCH  REQUESTED:          0  ISSUED:          0  USEFUL:          0  USELESS:          0
cpu0_ITLB AVERAGE MISS LATENCY: 10.4541 cycles
cpu0_L1I TOTAL     ACCESS:   11023639  HIT:   10225061  MISS:     798578
cpu0_L1I LOAD      ACCESS:    2733810  HIT:    2635759  MISS:      98051
cpu0_L1I RFO       ACCESS:          0  HIT:          0  MISS:          0
cpu0_L1I PREFETCH  ACCESS:    8289829  HIT:    7589302  MISS:     700527
cpu0_L1I WRITEBACK ACCESS:          0  HIT:          0  MISS:          0
cpu0_L1I TRANSLATION ACCESS:          0  HIT:          0  MISS:          0
cpu0_L1I PREFETCH  REQUESTED:   12088750  ISSUED:    8332988  USEFUL:     601116  USELESS:     121206
cpu0_L1I AVERAGE MISS LATENCY: 21.3075 cycles
cpu0_STLB TOTAL     ACCESS:     288354  HIT:     261843  MISS:      26511
cpu0_STLB LOAD      ACCESS:     274512  HIT:     249375  MISS:      25137
cpu0_STLB RFO       ACCESS:      13292  HIT:      11918  MISS:       1374
cpu0_STLB PREFETCH  ACCESS:        550  HIT:        550  MISS:          0
cpu0_STLB WRITEBACK ACCESS:          0  HIT:          0  MISS:          0
cpu0_STLB TRANSLATION ACCESS:          0  HIT:          0  MISS:          0
cpu0_STLB PREFETCH  REQUESTED:     284989  ISSUED:        703  USEFUL:          0  USELESS:          0
cpu0_STLB AVERAGE MISS LATENCY: 21.9255 cycles
cpu0_L1D TOTAL     ACCESS:    9865728  HIT:    9229815  MISS:     635913
cpu0_L1D LOAD      ACCESS:    3802500  HIT:    3510385  MISS:     292115
cpu0_L1D RFO       ACCESS:    2341427  HIT:    2273793  MISS:      67634
cpu0_L1D PREFETCH  ACCESS:    3696015  HIT:    3424146  MISS:     271869
cpu0_L1D WRITEBACK ACCESS:          0  HIT:          0  MISS:          0
cpu0_L1D TRANSLATION ACCESS:      25786  HIT:      21491  MISS:       4295
cpu0_L1D PREFETCH  REQUESTED:    3835168  ISSUED:    3812640  USEFUL:     201711  USELESS:      86881
cpu0_L1D AVERAGE MISS LATENCY: 43.2929 cycles
cpu0_L2C TOTAL     ACCESS:    1576509  HIT:    1168976  MISS:     407533
cpu0_L2C LOAD      ACCESS:     354614  HIT:     252619  MISS:     101995
cpu0_L2C RFO       ACCESS:      64715  HIT:      19428  MISS:      45287
cpu0_L2C PREFETCH  ACCESS:    1010830  HIT:     752289  MISS:     258541
cpu0_L2C WRITEBACK ACCESS:     142055  HIT:     141320  MISS:        735
cpu0_L2C TRANSLATION ACCESS:       4295  HIT:       3320  MISS:        975
cpu0_L2C PREFETCH  REQUESTED:          0  ISSUED:          0  USEFUL:          0  USELESS:          0
cpu0_L2C AVERAGE MISS LATENCY: 76.3735 cycles
LLC TOTAL     ACCESS:     490140  HIT:     414476  MISS:      75664
LLC LOAD      ACCESS:     101991  HIT:      87276  MISS:      14715
LLC RFO       ACCESS:      45287  HIT:      17722  MISS:      27565
LLC PREFETCH  ACCESS:     258539  HIT:     225330  MISS:      33209
LLC WRITEBACK ACCESS:      83348  HIT:      83228  MISS:        120
LLC TRANSLATION ACCESS:        975  HIT:        920  MISS:         55
LLC PREFETCH  REQUESTED:          0  ISSUED:          0  USEFUL:          0  USELESS:          0
LLC AVERAGE MISS LATENCY: 298.424 cycles
CPU 0 L1I Entangling prefetcher final stats
IP accesses: c78a 31e280 33241 / 2738826
IP misses: 6be 1af80 241 / 103068
IP hits: 0 0 0 / 0
IP late: 76f6 1dbd80 188 / 61947
IP wrong: 735 1cd40 478 / 262371
miss rate: 0.0376322
coverage: 0
coverage_late: 0.60103
accuracy: 0
accuracy_late: 0.191007
discarded: 0
evicts entangled j table: 0
evicts entangled k table: 21332
max bb size: 111
formats: 571 11455 15107 4631 2749 6947 0 
hist_lookups: 17401 20725 16041 12256 9249 6287 4573 3182 2189 1490 854 525 327 198 105 0 0 3102 
hist_lookups_evict: 0 %
hist_lookups_shortlat: 3.14911 %
bb_found_hist: 0 605250 323005 185048 93189 90272 51631 31734 19553 9337 7410 9556 2515 1798 2421 3281 1638 128 165 93 170 25 13 207 12 0 50 12 74 0 38 50 0 0 0 27 26 0 0 12 0 0 0 0 0 0 0 25 0 0 0 0 0 0 0 0 0 0 0 0 0 0 0 0 
bb_found_summary: 3771071 1438765 2.62105
entangled_found_hist: 0 369165 656382 322717 86799 11256 1956 0 
entangled_found_summary: 3065292 1448275 2.11651
bb_ent_found_hist: 0 964542 477173 307801 133473 133518 69693 36551 27341 11407 2685 17198 1322 3132 4639 3252 4470 687 1238 282 88 100 26 1970 24 0 0 12 226 0 108 0 0 0 0 79 0 0 0 25 0 0 0 0 0 0 0 25 0 0 0 0 0 0 0 0 0 0 0 0 0 0 0 0 
bb_ent_found_summary: 5601479 2203087 2.54256
CPU 0 TLB Entangling prefetcher final stats
ACCESS:550 HIT:550 MISS:0
IP accesses: 32be 32be000 4768 / 274512
IP misses: 327f 327f000 40 / 25137
IP hits: 0 0 0 / 0
IP late: 79ff 79ff000 25 / 783
IP wrong: 0 0 0 / 0
miss rate: 0.0915698
coverage: 0
coverage_late: 0.0311493
accuracy: 0
accuracy_late: 1
discarded: 0
evicts entangled j table: 0
evicts entangled k table: 7890
max bb size: 9
formats: 7990 1438 4578 2618 1462 1734 0 
hist_lookups: 27391 20966 5683 1614 643 316 173 125 101 66 44 49 31 17 20 0 27 1313 
hist_lookups_evict: 0.0460916 %
hist_lookups_shortlat: 2.24142 %
bb_found_hist: 0 27608 2408 576 810 327 82 54 0 0 0 0 0 0 0 0 
bb_found_summary: 39897 31865 1.25206
entangled_found_hist: 0 86993 22808 22630 7689 7 0 0 
entangled_found_summary: 231290 140127 1.65057
bb_ent_found_hist: 0 15829 256 73 8 10 0 1 0 0 0 0 0 0 0 0 
bb_ent_found_summary: 16649 16177 1.02918

DRAM Statistics
 CHANNEL 0
 RQ ROW_BUFFER_HIT:      18035  ROW_BUFFER_MISS:      57500
 DBUS AVG_CONGESTED_CYCLE:     3.9154
 WQ ROW_BUFFER_HIT:       4904  ROW_BUFFER_MISS:      29697  FULL:          0


CPU 0 Branch Prediction Accuracy: 93.3398% MPKI: 13.8515 Average ROB Occupancy at Mispredict: 146.79
Branch type MPKI
BRANCH_DIRECT_JUMP: 0.19824
BRANCH_INDIRECT: 0.51728
BRANCH_CONDITIONAL: 9.45216
BRANCH_DIRECT_CALL: 0.37436
BRANCH_INDIRECT_CALL: 2.6942
BRANCH_RETURN: 0.61524

