
*** ChampSim Multicore Out-of-Order Simulator ***

Warmup Instructions: 25000000
Simulation Instructions: 25000000
Number of CPUs: 1
Off-chip DRAM Size: 4 GiB Channels: 1 Width: 64-bit Data Rate: 3200 MT/s

VirtualMemory physical capacity: 8588881920 num_ppages: 2096895
VirtualMemory page size: 4096 log2_page_size: 12

CPU 0 runs ipc1_public/server_002.champsimtrace.xz
Basic BTB sets: 1024 ways: 8 indirect buffer size: 4096 RAS size: 64
CPU 0 Entangling prefetcher
cpu0_STLB arbitrary stride prefetcher
cpu0_L1D next line prefetcher
WARNING: The extended signature CACHE::prefetch_line(ip, base_addr, pf_addr, fill_this_level, prefetch_metadata) is deprecated.
WARNING: Use CACHE::prefetch_line(pf_addr, fill_this_level, prefetch_metadata) instead.
Heartbeat CPU 0 instructions: 10000003 cycles: 2504032 heartbeat IPC: 3.99356 cumulative IPC: 3.99356 (Simulation time: 0 hr 0 min 30 sec) 
Heartbeat CPU 0 instructions: 20000000 cycles: 5032866 heartbeat IPC: 3.95439 cumulative IPC: 3.97388 (Simulation time: 0 hr 1 min 2 sec) 

Warmup complete CPU 0 instructions: 25000004 cycles: 6282867 (Simulation time: 0 hr 1 min 18 sec) 

Heartbeat CPU 0 instructions: 30000001 cycles: 10208457 heartbeat IPC: 1.93215 cumulative IPC: 1.27369 (Simulation time: 0 hr 1 min 51 sec) 
Heartbeat CPU 0 instructions: 40000004 cycles: 17520175 heartbeat IPC: 1.36767 cumulative IPC: 1.33484 (Simulation time: 0 hr 2 min 54 sec) 
Heartbeat CPU 0 instructions: 50000000 cycles: 24830634 heartbeat IPC: 1.3679 cumulative IPC: 1.34787 (Simulation time: 0 hr 3 min 55 sec) 
Finished CPU 0 instructions: 25000000 cycles: 18547771 cumulative IPC: 1.34787 (Simulation time: 0 hr 3 min 55 sec) 

ChampSim completed all CPUs

Region of Interest Statistics

CPU 0 cumulative IPC: 1.34787 instructions: 25000000 cycles: 18547771
cpu0_DTLB TOTAL     ACCESS:    5246402  HIT:    5119568  MISS:     126834
cpu0_DTLB LOAD      ACCESS:    2663532  HIT:    2548525  MISS:     115007
cpu0_DTLB RFO       ACCESS:    2582870  HIT:    2571043  MISS:      11827
cpu0_DTLB PREFETCH  ACCESS:          0  HIT:          0  MISS:          0
cpu0_DTLB WRITEBACK ACCESS:          0  HIT:          0  MISS:          0
cpu0_DTLB TRANSLATION ACCESS:          0  HIT:          0  MISS:          0
cpu0_DTLB PREFETCH  REQUESTED:          0  ISSUED:          0  USEFUL:          0  USELESS:          0
cpu0_DTLB AVERAGE MISS LATENCY: 9.29122 cycles
cpu0_ITLB TOTAL     ACCESS:    1655715  HIT:    1554713  MISS:     101002
cpu0_ITLB LOAD      ACCESS:    1655715  HIT:    1554713  MISS:     101002
cpu0_ITLB RFO       ACCESS:          0  HIT:          0  MISS:          0
cpu0_ITLB PREFETCH  ACCESS:          0  HIT:          0  MISS:          0
cpu0_ITLB WRITEBACK ACCESS:          0  HIT:          0  MISS:          0
cpu0_ITLB TRANSLATION ACCESS:          0  HIT:          0  MISS:          0
cpu0_ITLB PREFETCH  REQUESTED:          0  ISSUED:          0  USEFUL:          0  USELESS:          0
cpu0_ITLB AVERAGE MISS LATENCY: 9.01408 cycles
cpu0_L1I TOTAL     ACCESS:   12570469  HIT:   11726147  MISS:     844322
cpu0_L1I LOAD      ACCESS:    3128896  HIT:    3043647  MISS:      85249
cpu0_L1I RFO       ACCESS:          0  HIT:          0  MISS:          0
cpu0_L1I PREFETCH  ACCESS:    9441573  HIT:    8682500  MISS:     759073
cpu0_L1I WRITEBACK ACCESS:          0  HIT:          0  MISS:          0
cpu0_L1I TRANSLATION ACCESS:          0  HIT:          0  MISS:          0
cpu0_L1I PREFETCH  REQUESTED:   13827595  ISSUED:    9471075  USEFUL:     675740  USELESS:      96608
cpu0_L1I AVERAGE MISS LATENCY: 11.0921 cycles
cpu0_STLB TOTAL     ACCESS:     227836  HIT:     227590  MISS:        246
cpu0_STLB LOAD      ACCESS:     216009  HIT:     215765  MISS:        244
cpu0_STLB RFO       ACCESS:      11827  HIT:      11825  MISS:          2
cpu0_STLB PREFETCH  ACCESS:          0  HIT:          0  MISS:          0
cpu0_STLB WRITEBACK ACCESS:          0  HIT:          0  MISS:          0
cpu0_STLB TRANSLATION ACCESS:          0  HIT:          0  MISS:          0
cpu0_STLB PREFETCH  REQUESTED:        605  ISSUED:          0  USEFUL:          0  USELESS:          0
cpu0_STLB AVERAGE MISS LATENCY: 135.809 cycles
cpu0_L1D TOTAL     ACCESS:   10649180  HIT:   10613848  MISS:      35332
cpu0_L1D LOAD      ACCESS:    3223500  HIT:    3210278  MISS:      13222
cpu0_L1D RFO       ACCESS:    4219733  HIT:    4215102  MISS:       4631
cpu0_L1D PREFETCH  ACCESS:    3205724  HIT:    3188264  MISS:      17460
cpu0_L1D WRITEBACK ACCESS:          0  HIT:          0  MISS:          0
cpu0_L1D TRANSLATION ACCESS:        223  HIT:        204  MISS:         19
cpu0_L1D PREFETCH  REQUESTED:    3224101  ISSUED:    3208586  USEFUL:      14207  USELESS:       3448
cpu0_L1D AVERAGE MISS LATENCY: 53.9922 cycles
cpu0_L2C TOTAL     ACCESS:     887402  HIT:     883012  MISS:       4390
cpu0_L2C LOAD      ACCESS:      85025  HIT:      83188  MISS:       1837
cpu0_L2C RFO       ACCESS:       4629  HIT:       4457  MISS:        172
cpu0_L2C PREFETCH  ACCESS:     789981  HIT:     787605  MISS:       2376
cpu0_L2C WRITEBACK ACCESS:       7748  HIT:       7748  MISS:          0
cpu0_L2C TRANSLATION ACCESS:         19  HIT:         14  MISS:          5
cpu0_L2C PREFETCH  REQUESTED:          0  ISSUED:          0  USEFUL:          0  USELESS:          0
cpu0_L2C AVERAGE MISS LATENCY: 433.174 cycles
LLC TOTAL     ACCESS:       6221  HIT:       2502  MISS:       3719
LLC LOAD      ACCESS:       1837  HIT:        262  MISS:       1575
LLC RFO       ACCESS:        172  HIT:         35  MISS:        137
LLC PREFETCH  ACCESS:       2376  HIT:        376  MISS:       2000
LLC WRITEBACK ACCESS:       1831  HIT:       1827  MISS:          4
LLC TRANSLATION ACCESS:          5  HIT:          2  MISS:          3
LLC PREFETCH  REQUESTED:          0  ISSUED:          0  USEFUL:          0  USELESS:          0
LLC AVERAGE MISS LATENCY: 486.539 cycles
CPU 0 L1I Entangling prefetcher final stats
IP accesses: 3f41 fd040 43845 / 3133937
IP misses: 4460 111800 8766 / 90290
IP hits: 0 0 0 / 0
IP late: 3d20 f4800 4385 / 59291
IP wrong: 413f 104fc0 7504 / 220108
miss rate: 0.0288104
coverage: 0
coverage_late: 0.656673
accuracy: 0
accuracy_late: 0.212209
discarded: 0
evicts entangled j table: 0
evicts entangled k table: 2272
max bb size: 15
formats: 19 0 1270 3516 294 180 0 
hist_lookups: 3473 5880 7959 5278 9133 8010 4125 300 2994 4414 3294 1598 6 88 7 0 0 767 
hist_lookups_evict: 0 %
hist_lookups_shortlat: 1.33796 %
bb_found_hist: 0 812410 409015 223612 95216 26094 21551 93 8775 57 4384 0 4396 4076 0 8778 0 0 0 0 0 0 0 0 0 0 0 0 0 0 0 0 0 0 0 0 0 0 0 0 0 0 0 0 0 0 0 0 0 0 0 0 0 0 0 0 0 0 0 0 0 0 0 0 
bb_found_summary: 3294530 1618457 2.0356
entangled_found_hist: 0 329519 370598 902948 64744 15936 4386 0 
entangled_found_summary: 4144531 1688131 2.4551
bb_ent_found_hist: 0 1167095 855340 463060 227969 21473 78885 272 17099 115 45021 0 30698 16391 0 17549 0 0 0 0 0 0 0 0 0 0 0 0 0 0 0 0 0 0 0 0 0 0 0 0 0 0 0 0 0 0 0 0 0 0 0 0 0 0 0 0 0 0 0 0 0 0 0 0 
bb_ent_found_summary: 7194141 2940967 2.44618

DRAM Statistics
 CHANNEL 0
 RQ ROW_BUFFER_HIT:        247  ROW_BUFFER_MISS:       3468
 DBUS AVG_CONGESTED_CYCLE:    3.94633
 WQ ROW_BUFFER_HIT:         24  ROW_BUFFER_MISS:       2244  FULL:          0


CPU 0 Branch Prediction Accuracy: 97.4984% MPKI: 4.21604 Average ROB Occupancy at Mispredict: 248.891
Branch type MPKI
BRANCH_DIRECT_JUMP: 0.001
BRANCH_INDIRECT: 0
BRANCH_CONDITIONAL: 4.0288
BRANCH_DIRECT_CALL: 0.00296
BRANCH_INDIRECT_CALL: 0.00768
BRANCH_RETURN: 0.1756

