
*** ChampSim Multicore Out-of-Order Simulator ***

Warmup Instructions: 25000000
Simulation Instructions: 25000000
Number of CPUs: 1
Off-chip DRAM Size: 4 GiB Channels: 1 Width: 64-bit Data Rate: 3200 MT/s

VirtualMemory physical capacity: 8588881920 num_ppages: 2096895
VirtualMemory page size: 4096 log2_page_size: 12

CPU 0 runs ipc1_public/server_001.champsimtrace.xz
Basic BTB sets: 1024 ways: 8 indirect buffer size: 4096 RAS size: 64
cpu0_STLB next line prefetcher
cpu0_L1D next line prefetcher
WARNING: The extended signature CACHE::prefetch_line(ip, base_addr, pf_addr, fill_this_level, prefetch_metadata) is deprecated.
WARNING: Use CACHE::prefetch_line(pf_addr, fill_this_level, prefetch_metadata) instead.
Heartbeat CPU 0 instructions: 10000001 cycles: 2541159 heartbeat IPC: 3.93521 cumulative IPC: 3.93521 (Simulation time: 0 hr 0 min 40 sec) 
Heartbeat CPU 0 instructions: 20000000 cycles: 5098858 heartbeat IPC: 3.90976 cumulative IPC: 3.92245 (Simulation time: 0 hr 1 min 21 sec) 

Warmup complete CPU 0 instructions: 25000001 cycles: 6376863 (Simulation time: 0 hr 1 min 41 sec) 

Heartbeat CPU 0 instructions: 30000003 cycles: 9879470 heartbeat IPC: 2.09178 cumulative IPC: 1.42751 (Simulation time: 0 hr 2 min 17 sec) 
Heartbeat CPU 0 instructions: 40000001 cycles: 18133276 heartbeat IPC: 1.21156 cumulative IPC: 1.2759 (Simulation time: 0 hr 3 min 40 sec) 
Heartbeat CPU 0 instructions: 50000004 cycles: 25859115 heartbeat IPC: 1.29436 cumulative IPC: 1.28322 (Simulation time: 0 hr 5 min 8 sec) 
Finished CPU 0 instructions: 25000003 cycles: 19482252 cumulative IPC: 1.28322 (Simulation time: 0 hr 5 min 8 sec) 

ChampSim completed all CPUs

Region of Interest Statistics

CPU 0 cumulative IPC: 1.28322 instructions: 25000003 cycles: 19482252
cpu0_DTLB TOTAL     ACCESS:    4828683  HIT:    4673815  MISS:     154868
cpu0_DTLB LOAD      ACCESS:    3045022  HIT:    2900700  MISS:     144322
cpu0_DTLB RFO       ACCESS:    1783661  HIT:    1773115  MISS:      10546
cpu0_DTLB PREFETCH  ACCESS:          0  HIT:          0  MISS:          0
cpu0_DTLB WRITEBACK ACCESS:          0  HIT:          0  MISS:          0
cpu0_DTLB TRANSLATION ACCESS:          0  HIT:          0  MISS:          0
cpu0_DTLB PREFETCH  REQUESTED:          0  ISSUED:          0  USEFUL:          0  USELESS:          0
cpu0_DTLB AVERAGE MISS LATENCY: 14.4397 cycles
cpu0_ITLB TOTAL     ACCESS:    1204594  HIT:    1152761  MISS:      51833
cpu0_ITLB LOAD      ACCESS:    1204594  HIT:    1152761  MISS:      51833
cpu0_ITLB RFO       ACCESS:          0  HIT:          0  MISS:          0
cpu0_ITLB PREFETCH  ACCESS:          0  HIT:          0  MISS:          0
cpu0_ITLB WRITEBACK ACCESS:          0  HIT:          0  MISS:          0
cpu0_ITLB TRANSLATION ACCESS:          0  HIT:          0  MISS:          0
cpu0_ITLB PREFETCH  REQUESTED:          0  ISSUED:          0  USEFUL:          0  USELESS:          0
cpu0_ITLB AVERAGE MISS LATENCY: 10.1344 cycles
cpu0_L1I TOTAL     ACCESS:    2578115  HIT:    2317233  MISS:     260882
cpu0_L1I LOAD      ACCESS:    2578115  HIT:    2317233  MISS:     260882
cpu0_L1I RFO       ACCESS:          0  HIT:          0  MISS:          0
cpu0_L1I PREFETCH  ACCESS:          0  HIT:          0  MISS:          0
cpu0_L1I WRITEBACK ACCESS:          0  HIT:          0  MISS:          0
cpu0_L1I TRANSLATION ACCESS:          0  HIT:          0  MISS:          0
cpu0_L1I PREFETCH  REQUESTED:          0  ISSUED:          0  USEFUL:          0  USELESS:          0
cpu0_L1I AVERAGE MISS LATENCY: 35.2455 cycles
cpu0_STLB TOTAL     ACCESS:     206701  HIT:     191249  MISS:      15452
cpu0_STLB LOAD      ACCESS:     196155  HIT:     181680  MISS:      14475
cpu0_STLB RFO       ACCESS:      10546  HIT:       9569  MISS:        977
cpu0_STLB PREFETCH  ACCESS:          0  HIT:          0  MISS:          0
cpu0_STLB WRITEBACK ACCESS:          0  HIT:          0  MISS:          0
cpu0_STLB TRANSLATION ACCESS:          0  HIT:          0  MISS:          0
cpu0_STLB PREFETCH  REQUESTED:     196155  ISSUED:          0  USEFUL:          0  USELESS:          0
cpu0_STLB AVERAGE MISS LATENCY: 58.027 cycles
cpu0_L1D TOTAL     ACCESS:    8668181  HIT:    8390317  MISS:     277864
cpu0_L1D LOAD      ACCESS:    3065272  HIT:    2950090  MISS:     115182
cpu0_L1D RFO       ACCESS:    2607928  HIT:    2561641  MISS:      46287
cpu0_L1D PREFETCH  ACCESS:    2979905  HIT:    2866272  MISS:     113633
cpu0_L1D WRITEBACK ACCESS:          0  HIT:          0  MISS:          0
cpu0_L1D TRANSLATION ACCESS:      15076  HIT:      12314  MISS:       2762
cpu0_L1D PREFETCH  REQUESTED:    3088397  ISSUED:    3077294  USEFUL:     113599  USELESS:      24172
cpu0_L1D AVERAGE MISS LATENCY: 151.447 cycles
cpu0_L2C TOTAL     ACCESS:     647584  HIT:     395613  MISS:     251971
cpu0_L2C LOAD      ACCESS:     352878  HIT:     229921  MISS:     122957
cpu0_L2C RFO       ACCESS:      45217  HIT:       5011  MISS:      40206
cpu0_L2C PREFETCH  ACCESS:     137880  HIT:      50230  MISS:      87650
cpu0_L2C WRITEBACK ACCESS:     108847  HIT:     108626  MISS:        221
cpu0_L2C TRANSLATION ACCESS:       2762  HIT:       1825  MISS:        937
cpu0_L2C PREFETCH  REQUESTED:          0  ISSUED:          0  USEFUL:          0  USELESS:          0
cpu0_L2C AVERAGE MISS LATENCY: 191.47 cycles
LLC TOTAL     ACCESS:     343156  HIT:     206589  MISS:     136567
LLC LOAD      ACCESS:     122956  HIT:      77499  MISS:      45457
LLC RFO       ACCESS:      40206  HIT:       3952  MISS:      36254
LLC PREFETCH  ACCESS:      87649  HIT:      32983  MISS:      54666
LLC WRITEBACK ACCESS:      91408  HIT:      91369  MISS:         39
LLC TRANSLATION ACCESS:        937  HIT:        786  MISS:        151
LLC PREFETCH  REQUESTED:          0  ISSUED:          0  USEFUL:          0  USELESS:          0
LLC AVERAGE MISS LATENCY: 314.554 cycles

DRAM Statistics
 CHANNEL 0
 RQ ROW_BUFFER_HIT:      24346  ROW_BUFFER_MISS:     112130
 DBUS AVG_CONGESTED_CYCLE:    3.90634
 WQ ROW_BUFFER_HIT:      11251  ROW_BUFFER_MISS:      63845  FULL:          0


CPU 0 Branch Prediction Accuracy: 96.6016% MPKI: 5.79848 Average ROB Occupancy at Mispredict: 176.545
Branch type MPKI
BRANCH_DIRECT_JUMP: 0.0432
BRANCH_INDIRECT: 0.12976
BRANCH_CONDITIONAL: 4.13252
BRANCH_DIRECT_CALL: 0.06328
BRANCH_INDIRECT_CALL: 0.0208
BRANCH_RETURN: 1.40892

