WARNING: physical memory size is smaller than virtual memory size.
WARNING: option --warmup_instructions is deprecated. Use --warmup-instructions instead.
WARNING: option --simulation_instructions is deprecated. Use --simulation-instructions instead.

*** ChampSim Multicore Out-of-Order Simulator ***
Warmup Instructions: 25000000
Simulation Instructions: 25000000
Number of CPUs: 1
Page size: 4096

Off-chip DRAM Size: 4 GiB Channels: 1 Width: 64-bit Data Race: 3200 MT/s
Heartbeat CPU 0 instructions: 10000000 cycles: 2502030 heartbeat IPC: 3.997 cumulative IPC: 3.997 (Simulation time: 00 hr 00 min 25 sec)
Heartbeat CPU 0 instructions: 20000002 cycles: 5006233 heartbeat IPC: 3.993 cumulative IPC: 3.995 (Simulation time: 00 hr 00 min 48 sec)
Warmup finished CPU 0 instructions: 25000003 cycles: 6256967 cumulative IPC: 3.996 (Simulation time: 00 hr 01 min 01 sec)
Warmup complete CPU 0 instructions: 25000003 cycles: 6256967 cumulative IPC: 3.996 (Simulation time: 00 hr 01 min 01 sec)
Heartbeat CPU 0 instructions: 30000000 cycles: 9260233 heartbeat IPC: 2.351 cumulative IPC: 1.665 (Simulation time: 00 hr 01 min 22 sec)
Heartbeat CPU 0 instructions: 40000001 cycles: 16144631 heartbeat IPC: 1.453 cumulative IPC: 1.517 (Simulation time: 00 hr 02 min 11 sec)
Heartbeat CPU 0 instructions: 50000000 cycles: 22051960 heartbeat IPC: 1.693 cumulative IPC: 1.583 (Simulation time: 00 hr 02 min 50 sec)
Simulation finished CPU 0 instructions: 25000001 cycles: 15795008 cumulative IPC: 1.583 (Simulation time: 00 hr 02 min 50 sec)
Simulation complete CPU 0 instructions: 25000001 cycles: 15795008 cumulative IPC: 1.583 (Simulation time: 00 hr 02 min 50 sec)

ChampSim completed all CPUs

=== Simulation ===
CPU 0 runs ipc1_public/server_003.champsimtrace.xz
Region of Interest Statistics

CPU 0 cumulative IPC: 1.583 instructions: 25000001 cycles: 15795008
CPU 0 Branch Prediction Accuracy: 94.01% MPKI: 12.46 Average ROB Occupancy at Mispredict: 55.23
Branch type MPKI
BRANCH_DIRECT_JUMP: 0.303
BRANCH_INDIRECT: 0.539
BRANCH_CONDITIONAL: 7.45
BRANCH_DIRECT_CALL: 0.55
BRANCH_INDIRECT_CALL: 2.72
BRANCH_RETURN: 0.901

LLC TOTAL        ACCESS:     540315 HIT:     452950 MISS:      87365
LLC LOAD         ACCESS:     209820 HIT:     191256 MISS:      18564
LLC RFO          ACCESS:      46869 HIT:      17757 MISS:      29112
LLC PREFETCH     ACCESS:     174676 HIT:     143066 MISS:      31610
LLC WRITE        ACCESS:      83871 HIT:      83704 MISS:        167
LLC TRANSLATION  ACCESS:      25079 HIT:      17167 MISS:       7912
LLC PREFETCH REQUESTED:          0 ISSUED:          0 USEFUL:          0 USELESS:          0
LLC AVERAGE MISS LATENCY: 262.9 cycles
cpu0_DTLB TOTAL        ACCESS:    5868335 HIT:    5559652 MISS:     308683
cpu0_DTLB LOAD         ACCESS:    5868335 HIT:    5559652 MISS:     308683
cpu0_DTLB RFO          ACCESS:          0 HIT:          0 MISS:          0
cpu0_DTLB PREFETCH     ACCESS:          0 HIT:          0 MISS:          0
cpu0_DTLB WRITE        ACCESS:          0 HIT:          0 MISS:          0
cpu0_DTLB TRANSLATION  ACCESS:          0 HIT:          0 MISS:          0
cpu0_DTLB PREFETCH REQUESTED:          0 ISSUED:          0 USEFUL:          0 USELESS:          0
cpu0_DTLB AVERAGE MISS LATENCY: 11.65 cycles
cpu0_ITLB TOTAL        ACCESS:    2812329 HIT:    2629540 MISS:     182789
cpu0_ITLB LOAD         ACCESS:    2812329 HIT:    2629540 MISS:     182789
cpu0_ITLB RFO          ACCESS:          0 HIT:          0 MISS:          0
cpu0_ITLB PREFETCH     ACCESS:          0 HIT:          0 MISS:          0
cpu0_ITLB WRITE        ACCESS:          0 HIT:          0 MISS:          0
cpu0_ITLB TRANSLATION  ACCESS:          0 HIT:          0 MISS:          0
cpu0_ITLB PREFETCH REQUESTED:          0 ISSUED:          0 USEFUL:          0 USELESS:          0
cpu0_ITLB AVERAGE MISS LATENCY: 6.57 cycles
cpu0_L1D TOTAL        ACCESS:   11057845 HIT:    9905651 MISS:    1152194
cpu0_L1D LOAD         ACCESS:    5011771 HIT:    4523741 MISS:     488030
cpu0_L1D RFO          ACCESS:          0 HIT:          0 MISS:          0
cpu0_L1D PREFETCH     ACCESS:    3510560 HIT:    3087649 MISS:     422911
cpu0_L1D WRITE        ACCESS:    2502460 HIT:    2291414 MISS:     211046
cpu0_L1D TRANSLATION  ACCESS:      33054 HIT:       2847 MISS:      30207
cpu0_L1D PREFETCH REQUESTED:    5058860 ISSUED:    3510559 USEFUL:      72843 USELESS:     168975
cpu0_L1D AVERAGE MISS LATENCY: 24.53 cycles
cpu0_L1I TOTAL        ACCESS:    3742177 HIT:    2347825 MISS:    1394352
cpu0_L1I LOAD         ACCESS:    1858994 HIT:    1221435 MISS:     637559
cpu0_L1I RFO          ACCESS:          0 HIT:          0 MISS:          0
cpu0_L1I PREFETCH     ACCESS:    1883183 HIT:    1126390 MISS:     756793
cpu0_L1I WRITE        ACCESS:          0 HIT:          0 MISS:          0
cpu0_L1I TRANSLATION  ACCESS:          0 HIT:          0 MISS:          0
cpu0_L1I PREFETCH REQUESTED:    1883451 ISSUED:    1883182 USEFUL:     133436 USELESS:     137627
cpu0_L1I AVERAGE MISS LATENCY: 10.24 cycles
cpu0_L2C TOTAL        ACCESS:    1438765 HIT:     981674 MISS:     457091
cpu0_L2C LOAD         ACCESS:     684242 HIT:     474419 MISS:     209823
cpu0_L2C RFO          ACCESS:      68191 HIT:      21322 MISS:      46869
cpu0_L2C PREFETCH     ACCESS:     512880 HIT:     338201 MISS:     174679
cpu0_L2C WRITE        ACCESS:     143534 HIT:     142893 MISS:        641
cpu0_L2C TRANSLATION  ACCESS:      29918 HIT:       4839 MISS:      25079
cpu0_L2C PREFETCH REQUESTED:          0 ISSUED:          0 USEFUL:          0 USELESS:          0
cpu0_L2C AVERAGE MISS LATENCY: 70.44 cycles
cpu0_STLB TOTAL        ACCESS:     285921 HIT:     259296 MISS:      26625
cpu0_STLB LOAD         ACCESS:     285921 HIT:     259296 MISS:      26625
cpu0_STLB RFO          ACCESS:          0 HIT:          0 MISS:          0
cpu0_STLB PREFETCH     ACCESS:          0 HIT:          0 MISS:          0
cpu0_STLB WRITE        ACCESS:          0 HIT:          0 MISS:          0
cpu0_STLB TRANSLATION  ACCESS:          0 HIT:          0 MISS:          0
cpu0_STLB PREFETCH REQUESTED:          0 ISSUED:          0 USEFUL:          0 USELESS:          0
cpu0_STLB AVERAGE MISS LATENCY: 125 cycles

DRAM Statistics

Channel 0 RQ ROW_BUFFER_HIT:      26203
  ROW_BUFFER_MISS:      60987
 AVG DBUS CONGESTED CYCLE: 3.9
WQ ROW_BUFFER_HIT: Channel 0 
  ROW_BUFFER_MISS:       4912
  FULL:      28390
