
*** ChampSim Multicore Out-of-Order Simulator ***

Warmup Instructions: 25000000
Simulation Instructions: 25000000
Number of CPUs: 1
Off-chip DRAM Size: 4 GiB Channels: 1 Width: 64-bit Data Rate: 3200 MT/s

VirtualMemory physical capacity: 8588881920 num_ppages: 2096895
VirtualMemory page size: 4096 log2_page_size: 12

CPU 0 runs ipc1_public/server_001.champsimtrace.xz
Basic BTB sets: 1024 ways: 8 indirect buffer size: 4096 RAS size: 64
CPU 0 Entangling prefetcher
cpu0_L1D next line prefetcher
WARNING: The extended signature CACHE::prefetch_line(ip, base_addr, pf_addr, fill_this_level, prefetch_metadata) is deprecated.
WARNING: Use CACHE::prefetch_line(pf_addr, fill_this_level, prefetch_metadata) instead.
Heartbeat CPU 0 instructions: 10000003 cycles: 2537464 heartbeat IPC: 3.94094 cumulative IPC: 3.94094 (Simulation time: 0 hr 0 min 18 sec) 
Heartbeat CPU 0 instructions: 20000001 cycles: 5091801 heartbeat IPC: 3.91491 cumulative IPC: 3.92788 (Simulation time: 0 hr 0 min 35 sec) 

Warmup complete CPU 0 instructions: 25000001 cycles: 6367974 (Simulation time: 0 hr 0 min 44 sec) 

Heartbeat CPU 0 instructions: 30000003 cycles: 9756817 heartbeat IPC: 2.14362 cumulative IPC: 1.47543 (Simulation time: 0 hr 0 min 57 sec) 
Heartbeat CPU 0 instructions: 40000001 cycles: 17784858 heartbeat IPC: 1.24563 cumulative IPC: 1.31384 (Simulation time: 0 hr 1 min 30 sec) 
Heartbeat CPU 0 instructions: 50000004 cycles: 25280704 heartbeat IPC: 1.33407 cumulative IPC: 1.32186 (Simulation time: 0 hr 2 min 2 sec) 
Finished CPU 0 instructions: 25000003 cycles: 18912730 cumulative IPC: 1.32186 (Simulation time: 0 hr 2 min 2 sec) 

ChampSim completed all CPUs

Region of Interest Statistics

CPU 0 cumulative IPC: 1.32186 instructions: 25000003 cycles: 18912730
cpu0_DTLB TOTAL     ACCESS:    4787938  HIT:    4632979  MISS:     154959
cpu0_DTLB LOAD      ACCESS:    3011696  HIT:    2867321  MISS:     144375
cpu0_DTLB RFO       ACCESS:    1776242  HIT:    1765658  MISS:      10584
cpu0_DTLB PREFETCH  ACCESS:          0  HIT:          0  MISS:          0
cpu0_DTLB WRITEBACK ACCESS:          0  HIT:          0  MISS:          0
cpu0_DTLB TRANSLATION ACCESS:          0  HIT:          0  MISS:          0
cpu0_DTLB PREFETCH  REQUESTED:          0  ISSUED:          0  USEFUL:          0  USELESS:          0
cpu0_DTLB AVERAGE MISS LATENCY: 14.4056 cycles
cpu0_ITLB TOTAL     ACCESS:    1205936  HIT:    1154094  MISS:      51842
cpu0_ITLB LOAD      ACCESS:    1205936  HIT:    1154094  MISS:      51842
cpu0_ITLB RFO       ACCESS:          0  HIT:          0  MISS:          0
cpu0_ITLB PREFETCH  ACCESS:          0  HIT:          0  MISS:          0
cpu0_ITLB WRITEBACK ACCESS:          0  HIT:          0  MISS:          0
cpu0_ITLB TRANSLATION ACCESS:          0  HIT:          0  MISS:          0
cpu0_ITLB PREFETCH  REQUESTED:          0  ISSUED:          0  USEFUL:          0  USELESS:          0
cpu0_ITLB AVERAGE MISS LATENCY: 10.0995 cycles
cpu0_L1I TOTAL     ACCESS:    8022541  HIT:    7691646  MISS:     330895
cpu0_L1I LOAD      ACCESS:    2584034  HIT:    2484820  MISS:      99214
cpu0_L1I RFO       ACCESS:          0  HIT:          0  MISS:          0
cpu0_L1I PREFETCH  ACCESS:    5438507  HIT:    5206826  MISS:     231681
cpu0_L1I WRITEBACK ACCESS:          0  HIT:          0  MISS:          0
cpu0_L1I TRANSLATION ACCESS:          0  HIT:          0  MISS:          0
cpu0_L1I PREFETCH  REQUESTED:    5902067  ISSUED:    5458821  USEFUL:     220593  USELESS:      20706
cpu0_L1I AVERAGE MISS LATENCY: 29.9303 cycles
cpu0_STLB TOTAL     ACCESS:     206801  HIT:     191349  MISS:      15452
cpu0_STLB LOAD      ACCESS:     196217  HIT:     181742  MISS:      14475
cpu0_STLB RFO       ACCESS:      10584  HIT:       9607  MISS:        977
cpu0_STLB PREFETCH  ACCESS:          0  HIT:          0  MISS:          0
cpu0_STLB WRITEBACK ACCESS:          0  HIT:          0  MISS:          0
cpu0_STLB TRANSLATION ACCESS:          0  HIT:          0  MISS:          0
cpu0_STLB PREFETCH  REQUESTED:          0  ISSUED:          0  USEFUL:          0  USELESS:          0
cpu0_STLB AVERAGE MISS LATENCY: 57.5983 cycles
cpu0_L1D TOTAL     ACCESS:    8607849  HIT:    8330078  MISS:     277771
cpu0_L1D LOAD      ACCESS:    3037177  HIT:    2921642  MISS:     115535
cpu0_L1D RFO       ACCESS:    2605368  HIT:    2559089  MISS:      46279
cpu0_L1D PREFETCH  ACCESS:    2950241  HIT:    2837047  MISS:     113194
cpu0_L1D WRITEBACK ACCESS:          0  HIT:          0  MISS:          0
cpu0_L1D TRANSLATION ACCESS:      15063  HIT:      12300  MISS:       2763
cpu0_L1D PREFETCH  REQUESTED:    3060662  ISSUED:    3049044  USEFUL:     113480  USELESS:      24316
cpu0_L1D AVERAGE MISS LATENCY: 150.833 cycles
cpu0_L2C TOTAL     ACCESS:     717501  HIT:     462353  MISS:     255148
cpu0_L2C LOAD      ACCESS:     181456  HIT:      78613  MISS:     102843
cpu0_L2C RFO       ACCESS:      45207  HIT:       4965  MISS:      40242
cpu0_L2C PREFETCH  ACCESS:     379229  HIT:     268347  MISS:     110882
cpu0_L2C WRITEBACK ACCESS:     108846  HIT:     108507  MISS:        339
cpu0_L2C TRANSLATION ACCESS:       2763  HIT:       1921  MISS:        842
cpu0_L2C PREFETCH  REQUESTED:          0  ISSUED:          0  USEFUL:          0  USELESS:          0
cpu0_L2C AVERAGE MISS LATENCY: 189.855 cycles
LLC TOTAL     ACCESS:     346421  HIT:     209202  MISS:     137219
LLC LOAD      ACCESS:     102842  HIT:      59221  MISS:      43621
LLC RFO       ACCESS:      40241  HIT:       3903  MISS:      36338
LLC PREFETCH  ACCESS:     110883  HIT:      53813  MISS:      57070
LLC WRITEBACK ACCESS:      91613  HIT:      91572  MISS:         41
LLC TRANSLATION ACCESS:        842  HIT:        693  MISS:        149
LLC PREFETCH  REQUESTED:          0  ISSUED:          0  USEFUL:          0  USELESS:          0
LLC AVERAGE MISS LATENCY: 314.027 cycles
CPU 0 L1I Entangling prefetcher final stats
IP accesses: 1f9c 7e700 26949 / 2588333
IP misses: a3e6 28f980 385 / 103513
IP hits: 0 0 0 / 0
IP late: a3e6 28f980 377 / 22108
IP wrong: eb7 3adc0 388 / 43727
miss rate: 0.0399921
coverage: 0
coverage_late: 0.213577
accuracy: 0
accuracy_late: 0.335809
discarded: 0
evicts entangled j table: 0
evicts entangled k table: 5218
max bb size: 111
formats: 662 2765 13270 2723 1801 5954 0 
hist_lookups: 11922 10987 7410 5433 3932 2596 1717 1139 660 404 268 179 114 64 44 0 60 753 
hist_lookups_evict: 0.125834 %
hist_lookups_shortlat: 1.57921 %
bb_found_hist: 0 335032 163059 69009 84854 42962 29014 13290 24045 13128 4969 1387 2005 4661 4219 176 2029 2305 13 262 306 4 245 0 0 3 1 1 0 0 0 0 0 4 0 0 0 0 0 0 0 0 0 0 0 0 0 1 0 0 0 0 0 0 0 0 0 0 0 0 0 0 0 0 
bb_found_summary: 2300097 796984 2.886
entangled_found_hist: 0 217146 202021 206291 13796 3163 167 0 
entangled_found_summary: 1312062 642584 2.04185
bb_ent_found_hist: 0 401032 173602 71436 90891 71735 34222 5413 2311 7508 3161 1900 734 5827 100 535 1905 9222 58 170 423 65 478 0 0 24 0 2 0 0 0 0 0 1 0 0 0 0 0 0 0 0 0 0 0 0 0 0 0 0 0 0 0 0 0 0 0 0 0 0 0 0 0 0 
bb_ent_found_summary: 2373116 882755 2.68831
SET:1
TAG:7ae FORMAT:3 ENTANGLED_ADDRESSES:236a CONF:3 0 CONF:0 0 CONF:0 0 CONF:0 0 CONF:0 0 CONF:0 BB SIZE:1
TAG:7b5 FORMAT:3 ENTANGLED_ADDRESSES:7b69 CONF:3 0 CONF:0 0 CONF:0 0 CONF:0 0 CONF:0 0 CONF:0 BB SIZE:1
TAG:14f9 FORMAT:2 ENTANGLED_ADDRESSES:edcf67b CONF:3 eccbfd2 CONF:3 0 CONF:0 0 CONF:0 0 CONF:0 0 CONF:0 BB SIZE:1
TAG:4dc FORMAT:5 ENTANGLED_ADDRESSES:b8 CONF:2 46 CONF:2 243 CONF:3 244 CONF:3 0 CONF:0 0 CONF:0 BB SIZE:3
TAG:19f FORMAT:4 ENTANGLED_ADDRESSES:1c46 CONF:3 1c42 CONF:3 1cba CONF:3 0 CONF:0 0 CONF:0 0 CONF:0 BB SIZE:8
TAG:70 FORMAT:1 ENTANGLED_ADDRESSES:0 CONF:0 0 CONF:0 0 CONF:0 0 CONF:0 0 CONF:0 0 CONF:0 BB SIZE:1
TAG:567 FORMAT:3 ENTANGLED_ADDRESSES:228d1 CONF:2 228d0 CONF:2 483c CONF:2 0 CONF:0 0 CONF:0 0 CONF:0 BB SIZE:2
TAG:56e FORMAT:1 ENTANGLED_ADDRESSES:3fffedcb620 CONF:3 0 CONF:0 0 CONF:0 0 CONF:0 0 CONF:0 0 CONF:0 BB SIZE:1
TAG:12b5 FORMAT:3 ENTANGLED_ADDRESSES:3c789 CONF:3 1ad6 CONF:3 0 CONF:0 0 CONF:0 0 CONF:0 0 CONF:0 BB SIZE:4
TAG:4de FORMAT:3 ENTANGLED_ADDRESSES:14010 CONF:2 14011 CONF:2 0 CONF:0 0 CONF:0 0 CONF:0 0 CONF:0 BB SIZE:0
TAG:7fc FORMAT:2 ENTANGLED_ADDRESSES:edf85f0 CONF:3 e8e497b CONF:3 0 CONF:0 0 CONF:0 0 CONF:0 0 CONF:0 BB SIZE:1
TAG:f79 FORMAT:3 ENTANGLED_ADDRESSES:25849 CONF:3 23f09 CONF:3 23f08 CONF:3 0 CONF:0 0 CONF:0 0 CONF:0 BB SIZE:4
TAG:f49 FORMAT:6 ENTANGLED_ADDRESSES:8b CONF:3 0 CONF:0 0 CONF:0 0 CONF:0 0 CONF:0 0 CONF:0 BB SIZE:2
TAG:554 FORMAT:3 ENTANGLED_ADDRESSES:277e2 CONF:3 4688 CONF:3 468d CONF:2 0 CONF:0 0 CONF:0 0 CONF:0 BB SIZE:3
TAG:4f4 FORMAT:3 ENTANGLED_ADDRESSES:2526c CONF:3 25271 CONF:3 0 CONF:0 0 CONF:0 0 CONF:0 0 CONF:0 BB SIZE:1
TAG:202 FORMAT:6 ENTANGLED_ADDRESSES:66 CONF:3 0 CONF:0 0 CONF:0 0 CONF:0 0 CONF:0 0 CONF:0 BB SIZE:2
SET:2
TAG:4a2 FORMAT:3 ENTANGLED_ADDRESSES:2131 CONF:3 2130 CONF:2 f7c9 CONF:3 0 CONF:0 0 CONF:0 0 CONF:0 BB SIZE:1
TAG:401 FORMAT:1 ENTANGLED_ADDRESSES:0 CONF:0 0 CONF:0 0 CONF:0 0 CONF:0 0 CONF:0 0 CONF:0 BB SIZE:7
TAG:55d FORMAT:3 ENTANGLED_ADDRESSES:1f97 CONF:3 38b3 CONF:3 40c4 CONF:3 0 CONF:0 0 CONF:0 0 CONF:0 BB SIZE:3
TAG:5e8 FORMAT:3 ENTANGLED_ADDRESSES:d2b4 CONF:1 0 CONF:0 0 CONF:0 0 CONF:0 0 CONF:0 0 CONF:0 BB SIZE:1
TAG:56f FORMAT:3 ENTANGLED_ADDRESSES:38fe CONF:3 0 CONF:0 0 CONF:0 0 CONF:0 0 CONF:0 0 CONF:0 BB SIZE:1
TAG:577 FORMAT:3 ENTANGLED_ADDRESSES:f355 CONF:3 f359 CONF:3 0 CONF:0 0 CONF:0 0 CONF:0 0 CONF:0 BB SIZE:9
TAG:63f FORMAT:3 ENTANGLED_ADDRESSES:3586 CONF:2 2617 CONF:3 1e8f CONF:3 0 CONF:0 0 CONF:0 0 CONF:0 BB SIZE:2
TAG:f09 FORMAT:4 ENTANGLED_ADDRESSES:184c CONF:1 1835 CONF:3 0 CONF:0 0 CONF:0 0 CONF:0 0 CONF:0 BB SIZE:6
TAG:426 FORMAT:3 ENTANGLED_ADDRESSES:1f9a CONF:2 29e9 CONF:3 0 CONF:0 0 CONF:0 0 CONF:0 0 CONF:0 BB SIZE:3
TAG:2 FORMAT:3 ENTANGLED_ADDRESSES:2776a CONF:2 7831 CONF:3 7834 CONF:3 0 CONF:0 0 CONF:0 0 CONF:0 BB SIZE:1
TAG:14f9 FORMAT:2 ENTANGLED_ADDRESSES:ecc3596 CONF:2 ecc358e CONF:2 0 CONF:0 0 CONF:0 0 CONF:0 0 CONF:0 BB SIZE:0
TAG:565 FORMAT:3 ENTANGLED_ADDRESSES:146d0 CONF:0 de92 CONF:3 de91 CONF:3 0 CONF:0 0 CONF:0 0 CONF:0 BB SIZE:1
TAG:551 FORMAT:3 ENTANGLED_ADDRESSES:c066 CONF:2 c06d CONF:3 0 CONF:0 0 CONF:0 0 CONF:0 0 CONF:0 BB SIZE:1
TAG:75d FORMAT:3 ENTANGLED_ADDRESSES:5a26 CONF:1 0 CONF:0 0 CONF:0 0 CONF:0 0 CONF:0 0 CONF:0 BB SIZE:1
TAG:485 FORMAT:3 ENTANGLED_ADDRESSES:e30d CONF:3 0 CONF:0 0 CONF:0 0 CONF:0 0 CONF:0 0 CONF:0 BB SIZE:5
TAG:4d4 FORMAT:3 ENTANGLED_ADDRESSES:4a85 CONF:1 0 CONF:0 0 CONF:0 0 CONF:0 0 CONF:0 0 CONF:0 BB SIZE:1
SET:3
TAG:4cb FORMAT:4 ENTANGLED_ADDRESSES:1abb CONF:3 0 CONF:0 0 CONF:0 0 CONF:0 0 CONF:0 0 CONF:0 BB SIZE:4
TAG:2d FORMAT:3 ENTANGLED_ADDRESSES:3b85 CONF:3 0 CONF:0 0 CONF:0 0 CONF:0 0 CONF:0 0 CONF:0 BB SIZE:1
TAG:535 FORMAT:4 ENTANGLED_ADDRESSES:1329 CONF:3 0 CONF:0 0 CONF:0 0 CONF:0 0 CONF:0 0 CONF:0 BB SIZE:5
TAG:25 FORMAT:3 ENTANGLED_ADDRESSES:86b7 CONF:3 86bd CONF:3 0 CONF:0 0 CONF:0 0 CONF:0 0 CONF:0 BB SIZE:2
TAG:a5 FORMAT:1 ENTANGLED_ADDRESSES:0 CONF:0 0 CONF:0 0 CONF:0 0 CONF:0 0 CONF:0 0 CONF:0 BB SIZE:1
TAG:736 FORMAT:3 ENTANGLED_ADDRESSES:25547 CONF:1 25557 CONF:1 0 CONF:0 0 CONF:0 0 CONF:0 0 CONF:0 BB SIZE:2
TAG:4f4 FORMAT:3 ENTANGLED_ADDRESSES:25208 CONF:3 0 CONF:0 0 CONF:0 0 CONF:0 0 CONF:0 0 CONF:0 BB SIZE:1
TAG:565 FORMAT:1 ENTANGLED_ADDRESSES:3fffc0000207f00 CONF:2 0 CONF:0 0 CONF:0 0 CONF:0 0 CONF:0 0 CONF:0 BB SIZE:1
TAG:83 FORMAT:6 ENTANGLED_ADDRESSES:1d CONF:3 0 CONF:0 0 CONF:0 0 CONF:0 0 CONF:0 0 CONF:0 BB SIZE:4
TAG:4a2 FORMAT:3 ENTANGLED_ADDRESSES:21f4 CONF:3 27706 CONF:3 2131 CONF:3 0 CONF:0 0 CONF:0 0 CONF:0 BB SIZE:2
TAG:4d0 FORMAT:4 ENTANGLED_ADDRESSES:133 CONF:3 0 CONF:0 0 CONF:0 0 CONF:0 0 CONF:0 0 CONF:0 BB SIZE:0
TAG:6bb FORMAT:3 ENTANGLED_ADDRESSES:4842 CONF:3 228d1 CONF:3 228d0 CONF:3 0 CONF:0 0 CONF:0 0 CONF:0 BB SIZE:5
TAG:609 FORMAT:2 ENTANGLED_ADDRESSES:ecc80b1 CONF:2 edcba2d CONF:3 0 CONF:0 0 CONF:0 0 CONF:0 0 CONF:0 BB SIZE:2
TAG:16e FORMAT:4 ENTANGLED_ADDRESSES:695 CONF:3 0 CONF:0 0 CONF:0 0 CONF:0 0 CONF:0 0 CONF:0 BB SIZE:1
TAG:4ba FORMAT:3 ENTANGLED_ADDRESSES:c125 CONF:3 0 CONF:0 0 CONF:0 0 CONF:0 0 CONF:0 0 CONF:0 BB SIZE:1
TAG:707 FORMAT:3 ENTANGLED_ADDRESSES:277e4 CONF:3 4aa2 CONF:3 4aaf CONF:3 0 CONF:0 0 CONF:0 0 CONF:0 BB SIZE:1
SET:4
TAG:583 FORMAT:3 ENTANGLED_ADDRESSES:7ed0 CONF:2 4837 CONF:2 465e CONF:3 0 CONF:0 0 CONF:0 0 CONF:0 BB SIZE:0
TAG:588 FORMAT:3 ENTANGLED_ADDRESSES:4837 CONF:2 0 CONF:0 0 CONF:0 0 CONF:0 0 CONF:0 0 CONF:0 BB SIZE:1
TAG:736 FORMAT:3 ENTANGLED_ADDRESSES:f7d6 CONF:3 4b3b CONF:2 79da CONF:3 0 CONF:0 0 CONF:0 0 CONF:0 BB SIZE:3
TAG:1e8 FORMAT:3 ENTANGLED_ADDRESSES:1400c CONF:3 870d CONF:1 c73c CONF:3 0 CONF:0 0 CONF:0 0 CONF:0 BB SIZE:5
TAG:4fd FORMAT:3 ENTANGLED_ADDRESSES:f5db CONF:3 157f2 CONF:3 0 CONF:0 0 CONF:0 0 CONF:0 0 CONF:0 BB SIZE:5
TAG:63f FORMAT:3 ENTANGLED_ADDRESSES:28fa CONF:3 a956 CONF:3 28ef CONF:3 0 CONF:0 0 CONF:0 0 CONF:0 BB SIZE:1
TAG:f70 FORMAT:4 ENTANGLED_ADDRESSES:1516 CONF:3 145b CONF:3 0 CONF:0 0 CONF:0 0 CONF:0 0 CONF:0 BB SIZE:1
TAG:f7d FORMAT:3 ENTANGLED_ADDRESSES:4650 CONF:1 24051 CONF:1 24050 CONF:1 0 CONF:0 0 CONF:0 0 CONF:0 BB SIZE:3
TAG:715 FORMAT:3 ENTANGLED_ADDRESSES:53d7 CONF:3 146a2 CONF:3 0 CONF:0 0 CONF:0 0 CONF:0 0 CONF:0 BB SIZE:2
TAG:4a3 FORMAT:3 ENTANGLED_ADDRESSES:12abb CONF:3 12ab9 CONF:2 12ab1 CONF:3 0 CONF:0 0 CONF:0 0 CONF:0 BB SIZE:1
TAG:a5 FORMAT:3 ENTANGLED_ADDRESSES:ab29 CONF:3 0 CONF:0 0 CONF:0 0 CONF:0 0 CONF:0 0 CONF:0 BB SIZE:5
TAG:545 FORMAT:3 ENTANGLED_ADDRESSES:a952 CONF:3 9315 CONF:3 0 CONF:0 0 CONF:0 0 CONF:0 0 CONF:0 BB SIZE:7
TAG:12aa FORMAT:2 ENTANGLED_ADDRESSES:edb5ccf CONF:3 0 CONF:0 0 CONF:0 0 CONF:0 0 CONF:0 0 CONF:0 BB SIZE:0
TAG:1b23 FORMAT:5 ENTANGLED_ADDRESSES:336 CONF:3 2c0 CONF:3 2bb CONF:3 0 CONF:0 0 CONF:0 0 CONF:0 BB SIZE:2
TAG:15f5 FORMAT:2 ENTANGLED_ADDRESSES:edcb585 CONF:2 edb5c9b CONF:3 0 CONF:0 0 CONF:0 0 CONF:0 0 CONF:0 BB SIZE:1
TAG:4a5 FORMAT:3 ENTANGLED_ADDRESSES:4207 CONF:3 45c6 CONF:2 420a CONF:3 0 CONF:0 0 CONF:0 0 CONF:0 BB SIZE:3
SET:5
TAG:44a FORMAT:3 ENTANGLED_ADDRESSES:5c14 CONF:3 0 CONF:0 0 CONF:0 0 CONF:0 0 CONF:0 0 CONF:0 BB SIZE:2
TAG:555 FORMAT:6 ENTANGLED_ADDRESSES:c7 CONF:3 0 CONF:0 0 CONF:0 0 CONF:0 0 CONF:0 0 CONF:0 BB SIZE:1
TAG:48e FORMAT:3 ENTANGLED_ADDRESSES:2041 CONF:3 0 CONF:0 0 CONF:0 0 CONF:0 0 CONF:0 0 CONF:0 BB SIZE:9
TAG:799 FORMAT:1 ENTANGLED_ADDRESSES:0 CONF:0 0 CONF:0 0 CONF:0 0 CONF:0 0 CONF:0 0 CONF:0 BB SIZE:1
TAG:7ea FORMAT:3 ENTANGLED_ADDRESSES:6582 CONF:3 0 CONF:0 0 CONF:0 0 CONF:0 0 CONF:0 0 CONF:0 BB SIZE:6
TAG:658 FORMAT:3 ENTANGLED_ADDRESSES:1690c CONF:3 53fd CONF:3 0 CONF:0 0 CONF:0 0 CONF:0 0 CONF:0 BB SIZE:c
TAG:476 FORMAT:3 ENTANGLED_ADDRESSES:1fa6 CONF:3 c131 CONF:2 a3e5 CONF:3 0 CONF:0 0 CONF:0 0 CONF:0 BB SIZE:1
TAG:7a9 FORMAT:3 ENTANGLED_ADDRESSES:f09c CONF:3 f0a3 CONF:3 aa21 CONF:3 0 CONF:0 0 CONF:0 0 CONF:0 BB SIZE:3
TAG:161 FORMAT:3 ENTANGLED_ADDRESSES:687c CONF:3 87dd CONF:3 8805 CONF:3 0 CONF:0 0 CONF:0 0 CONF:0 BB SIZE:2f
TAG:5a6 FORMAT:4 ENTANGLED_ADDRESSES:180b CONF:1 0 CONF:0 0 CONF:0 0 CONF:0 0 CONF:0 0 CONF:0 BB SIZE:0
TAG:701 FORMAT:3 ENTANGLED_ADDRESSES:f7c6 CONF:3 3b0f CONF:3 3b13 CONF:3 0 CONF:0 0 CONF:0 0 CONF:0 BB SIZE:2
TAG:564 FORMAT:6 ENTANGLED_ADDRESSES:e3 CONF:3 0 CONF:0 0 CONF:0 0 CONF:0 0 CONF:0 0 CONF:0 BB SIZE:5
TAG:7ab FORMAT:3 ENTANGLED_ADDRESSES:2563 CONF:3 1f9d CONF:3 f0b3 CONF:3 0 CONF:0 0 CONF:0 0 CONF:0 BB SIZE:8
TAG:692 FORMAT:3 ENTANGLED_ADDRESSES:1034a CONF:3 8e05 CONF:3 15bc0 CONF:3 0 CONF:0 0 CONF:0 0 CONF:0 BB SIZE:f
TAG:558 FORMAT:5 ENTANGLED_ADDRESSES:3cb CONF:3 0 CONF:0 0 CONF:0 0 CONF:0 0 CONF:0 0 CONF:0 BB SIZE:2
TAG:5f8 FORMAT:3 ENTANGLED_ADDRESSES:42a7 CONF:3 6a83 CONF:3 0 CONF:0 0 CONF:0 0 CONF:0 0 CONF:0 BB SIZE:1
SET:6
TAG:1ba FORMAT:3 ENTANGLED_ADDRESSES:11547 CONF:0 d947 CONF:1 0 CONF:0 0 CONF:0 0 CONF:0 0 CONF:0 BB SIZE:3
TAG:6ab FORMAT:2 ENTANGLED_ADDRESSES:edf842e CONF:3 0 CONF:0 0 CONF:0 0 CONF:0 0 CONF:0 0 CONF:0 BB SIZE:1
TAG:597 FORMAT:3 ENTANGLED_ADDRESSES:f7ce CONF:3 0 CONF:0 0 CONF:0 0 CONF:0 0 CONF:0 0 CONF:0 BB SIZE:5
TAG:555 FORMAT:3 ENTANGLED_ADDRESSES:25868 CONF:3 256d7 CONF:2 256f6 CONF:3 0 CONF:0 0 CONF:0 0 CONF:0 BB SIZE:1
TAG:627 FORMAT:3 ENTANGLED_ADDRESSES:a458 CONF:3 0 CONF:0 0 CONF:0 0 CONF:0 0 CONF:0 0 CONF:0 BB SIZE:1
TAG:4f4 FORMAT:6 ENTANGLED_ADDRESSES:96 CONF:3 ae CONF:3 0 CONF:0 0 CONF:0 0 CONF:0 0 CONF:0 BB SIZE:0
TAG:64e FORMAT:3 ENTANGLED_ADDRESSES:aa64 CONF:3 aa2f CONF:3 0 CONF:0 0 CONF:0 0 CONF:0 0 CONF:0 BB SIZE:15
TAG:5e8 FORMAT:3 ENTANGLED_ADDRESSES:d2ac CONF:3 0 CONF:0 0 CONF:0 0 CONF:0 0 CONF:0 0 CONF:0 BB SIZE:4
TAG:70 FORMAT:3 ENTANGLED_ADDRESSES:13b1f CONF:3 ac83 CONF:3 0 CONF:0 0 CONF:0 0 CONF:0 0 CONF:0 BB SIZE:5
TAG:7d6 FORMAT:3 ENTANGLED_ADDRESSES:38c1 CONF:3 aca4 CONF:3 e1ee CONF:3 0 CONF:0 0 CONF:0 0 CONF:0 BB SIZE:6
TAG:652 FORMAT:3 ENTANGLED_ADDRESSES:c214 CONF:3 fc34 CONF:3 0 CONF:0 0 CONF:0 0 CONF:0 0 CONF:0 BB SIZE:1
TAG:1c0 FORMAT:3 ENTANGLED_ADDRESSES:14851 CONF:3 6b26 CONF:3 0 CONF:0 0 CONF:0 0 CONF:0 0 CONF:0 BB SIZE:a
TAG:44c FORMAT:5 ENTANGLED_ADDRESSES:320 CONF:3 324 CONF:3 0 CONF:0 0 CONF:0 0 CONF:0 0 CONF:0 BB SIZE:1
TAG:4d1 FORMAT:6 ENTANGLED_ADDRESSES:6a CONF:2 8a CONF:3 54 CONF:3 0 CONF:0 0 CONF:0 0 CONF:0 BB SIZE:7
TAG:753 FORMAT:3 ENTANGLED_ADDRESSES:777a CONF:3 7776 CONF:3 7779 CONF:3 0 CONF:0 0 CONF:0 0 CONF:0 BB SIZE:3
TAG:4d8 FORMAT:3 ENTANGLED_ADDRESSES:12116 CONF:3 1f9e CONF:3 0 CONF:0 0 CONF:0 0 CONF:0 0 CONF:0 BB SIZE:1
SET:7
TAG:788 FORMAT:1 ENTANGLED_ADDRESSES:0 CONF:0 0 CONF:0 0 CONF:0 0 CONF:0 0 CONF:0 0 CONF:0 BB SIZE:6
TAG:668 FORMAT:3 ENTANGLED_ADDRESSES:95c9 CONF:2 0 CONF:0 0 CONF:0 0 CONF:0 0 CONF:0 0 CONF:0 BB SIZE:8
TAG:1a5a FORMAT:1 ENTANGLED_ADDRESSES:3fffc00002020a1 CONF:3 0 CONF:0 0 CONF:0 0 CONF:0 0 CONF:0 0 CONF:0 BB SIZE:2
TAG:5e2 FORMAT:3 ENTANGLED_ADDRESSES:131a0 CONF:3 d373 CONF:1 0 CONF:0 0 CONF:0 0 CONF:0 0 CONF:0 BB SIZE:2
TAG:69a FORMAT:3 ENTANGLED_ADDRESSES:9a85 CONF:3 0 CONF:0 0 CONF:0 0 CONF:0 0 CONF:0 0 CONF:0 BB SIZE:3
TAG:4dc FORMAT:6 ENTANGLED_ADDRESSES:c5 CONF:3 b8 CONF:2 0 CONF:0 0 CONF:0 0 CONF:0 0 CONF:0 BB SIZE:0
TAG:f78 FORMAT:4 ENTANGLED_ADDRESSES:1145 CONF:2 0 CONF:0 0 CONF:0 0 CONF:0 0 CONF:0 0 CONF:0 BB SIZE:1
TAG:555 FORMAT:3 ENTANGLED_ADDRESSES:25868 CONF:3 38ad CONF:3 0 CONF:0 0 CONF:0 0 CONF:0 0 CONF:0 BB SIZE:4
TAG:1b25 FORMAT:6 ENTANGLED_ADDRESSES:bb CONF:3 0 CONF:0 0 CONF:0 0 CONF:0 0 CONF:0 0 CONF:0 BB SIZE:0
TAG:15f8 FORMAT:2 ENTANGLED_ADDRESSES:edba6da CONF:3 e105 CONF:0 edce106 CONF:2 0 CONF:0 0 CONF:0 0 CONF:0 BB SIZE:1
TAG:4a2 FORMAT:6 ENTANGLED_ADDRESSES:30 CONF:3 0 CONF:0 0 CONF:0 0 CONF:0 0 CONF:0 0 CONF:0 BB SIZE:0
TAG:10c FORMAT:3 ENTANGLED_ADDRESSES:10217 CONF:2 0 CONF:0 0 CONF:0 0 CONF:0 0 CONF:0 0 CONF:0 BB SIZE:2
TAG:6d0 FORMAT:2 ENTANGLED_ADDRESSES:e8e49bc CONF:3 edff40c CONF:3 0 CONF:0 0 CONF:0 0 CONF:0 0 CONF:0 BB SIZE:b
TAG:15f5 FORMAT:2 ENTANGLED_ADDRESSES:edbfab5 CONF:3 0 CONF:0 0 CONF:0 0 CONF:0 0 CONF:0 0 CONF:0 BB SIZE:3
TAG:401 FORMAT:6 ENTANGLED_ADDRESSES:84 CONF:3 0 CONF:0 0 CONF:0 0 CONF:0 0 CONF:0 0 CONF:0 BB SIZE:0
TAG:4ed FORMAT:3 ENTANGLED_ADDRESSES:4c45 CONF:2 4be7 CONF:3 74ce CONF:2 0 CONF:0 0 CONF:0 0 CONF:0 BB SIZE:6
SET:8
TAG:78b FORMAT:3 ENTANGLED_ADDRESSES:e742 CONF:3 0 CONF:0 0 CONF:0 0 CONF:0 0 CONF:0 0 CONF:0 BB SIZE:9
TAG:1ef FORMAT:3 ENTANGLED_ADDRESSES:3984 CONF:3 0 CONF:0 0 CONF:0 0 CONF:0 0 CONF:0 0 CONF:0 BB SIZE:7
TAG:6c FORMAT:1 ENTANGLED_ADDRESSES:0 CONF:0 0 CONF:0 0 CONF:0 0 CONF:0 0 CONF:0 0 CONF:0 BB SIZE:2
TAG:f78 FORMAT:5 ENTANGLED_ADDRESSES:248 CONF:3 1a4 CONF:2 1a8 CONF:2 1a9 CONF:2 1f6 CONF:2 0 CONF:0 BB SIZE:2
TAG:433 FORMAT:3 ENTANGLED_ADDRESSES:c0f9 CONF:0 1f9a CONF:2 12ccd CONF:3 0 CONF:0 0 CONF:0 0 CONF:0 BB SIZE:2
TAG:483 FORMAT:3 ENTANGLED_ADDRESSES:cf3c CONF:2 0 CONF:0 0 CONF:0 0 CONF:0 0 CONF:0 0 CONF:0 BB SIZE:10
TAG:1e8 FORMAT:3 ENTANGLED_ADDRESSES:c74e CONF:3 c73c CONF:2 0 CONF:0 0 CONF:0 0 CONF:0 0 CONF:0 BB SIZE:2
TAG:766 FORMAT:3 ENTANGLED_ADDRESSES:bde3 CONF:2 f1b CONF:3 10356 CONF:3 0 CONF:0 0 CONF:0 0 CONF:0 BB SIZE:2
TAG:160 FORMAT:6 ENTANGLED_ADDRESSES:10 CONF:3 0 CONF:0 0 CONF:0 0 CONF:0 0 CONF:0 0 CONF:0 BB SIZE:1
TAG:56c FORMAT:6 ENTANGLED_ADDRESSES:31 CONF:3 0 CONF:0 0 CONF:0 0 CONF:0 0 CONF:0 0 CONF:0 BB SIZE:3
TAG:15c3 FORMAT:3 ENTANGLED_ADDRESSES:3c6bb CONF:3 3c7fb CONF:1 bbdc CONF:2 0 CONF:0 0 CONF:0 0 CONF:0 BB SIZE:0
TAG:739 FORMAT:3 ENTANGLED_ADDRESSES:35dd CONF:3 96dc CONF:3 96ed CONF:3 0 CONF:0 0 CONF:0 0 CONF:0 BB SIZE:2
TAG:708 FORMAT:3 ENTANGLED_ADDRESSES:1489 CONF:3 0 CONF:0 0 CONF:0 0 CONF:0 0 CONF:0 0 CONF:0 BB SIZE:1
TAG:7fc FORMAT:2 ENTANGLED_ADDRESSES:edce101 CONF:2 eccb7fa CONF:2 0 CONF:0 0 CONF:0 0 CONF:0 0 CONF:0 BB SIZE:b
TAG:621 FORMAT:6 ENTANGLED_ADDRESSES:9a CONF:3 0 CONF:0 0 CONF:0 0 CONF:0 0 CONF:0 0 CONF:0 BB SIZE:1
TAG:44a FORMAT:3 ENTANGLED_ADDRESSES:9668 CONF:3 0 CONF:0 0 CONF:0 0 CONF:0 0 CONF:0 0 CONF:0 BB SIZE:1
SET:9
TAG:144 FORMAT:3 ENTANGLED_ADDRESSES:13b78 CONF:3 0 CONF:0 0 CONF:0 0 CONF:0 0 CONF:0 0 CONF:0 BB SIZE:0
TAG:554 FORMAT:3 ENTANGLED_ADDRESSES:30ac CONF:3 0 CONF:0 0 CONF:0 0 CONF:0 0 CONF:0 0 CONF:0 BB SIZE:3
TAG:15f4 FORMAT:3 ENTANGLED_ADDRESSES:b62e CONF:3 377f CONF:3 b619 CONF:3 0 CONF:0 0 CONF:0 0 CONF:0 BB SIZE:1
TAG:4b9 FORMAT:4 ENTANGLED_ADDRESSES:1347 CONF:3 1a30 CONF:3 0 CONF:0 0 CONF:0 0 CONF:0 0 CONF:0 BB SIZE:6
TAG:788 FORMAT:3 ENTANGLED_ADDRESSES:4623 CONF:3 4627 CONF:3 0 CONF:0 0 CONF:0 0 CONF:0 0 CONF:0 BB SIZE:3
TAG:25 FORMAT:6 ENTANGLED_ADDRESSES:97 CONF:3 99 CONF:3 9e CONF:3 a6 CONF:3 c5 CONF:3 0 CONF:0 BB SIZE:2
TAG:727 FORMAT:3 ENTANGLED_ADDRESSES:4111 CONF:3 0 CONF:0 0 CONF:0 0 CONF:0 0 CONF:0 0 CONF:0 BB SIZE:1
TAG:a5 FORMAT:3 ENTANGLED_ADDRESSES:10109 CONF:1 ab41 CONF:3 0 CONF:0 0 CONF:0 0 CONF:0 0 CONF:0 BB SIZE:7
TAG:736 FORMAT:3 ENTANGLED_ADDRESSES:588f CONF:3 0 CONF:0 0 CONF:0 0 CONF:0 0 CONF:0 0 CONF:0 BB SIZE:0
TAG:e85 FORMAT:3 ENTANGLED_ADDRESSES:2555b CONF:2 0 CONF:0 0 CONF:0 0 CONF:0 0 CONF:0 0 CONF:0 BB SIZE:2
TAG:f1a FORMAT:5 ENTANGLED_ADDRESSES:1d6 CONF:3 ca CONF:3 c7 CONF:3 0 CONF:0 0 CONF:0 0 CONF:0 BB SIZE:3
TAG:415 FORMAT:3 ENTANGLED_ADDRESSES:809c CONF:3 456b CONF:3 4880 CONF:3 0 CONF:0 0 CONF:0 0 CONF:0 BB SIZE:3
TAG:62d FORMAT:3 ENTANGLED_ADDRESSES:12811 CONF:3 d94f CONF:3 0 CONF:0 0 CONF:0 0 CONF:0 0 CONF:0 BB SIZE:5
TAG:fe6 FORMAT:3 ENTANGLED_ADDRESSES:38ba CONF:3 276f0 CONF:3 4599 CONF:3 0 CONF:0 0 CONF:0 0 CONF:0 BB SIZE:2
TAG:655 FORMAT:6 ENTANGLED_ADDRESSES:cb CONF:3 0 CONF:0 0 CONF:0 0 CONF:0 0 CONF:0 0 CONF:0 BB SIZE:e
TAG:f73 FORMAT:3 ENTANGLED_ADDRESSES:23f86 CONF:3 0 CONF:0 0 CONF:0 0 CONF:0 0 CONF:0 0 CONF:0 BB SIZE:2
SET:10
TAG:ff FORMAT:3 ENTANGLED_ADDRESSES:1fa3 CONF:2 41c0 CONF:1 5d23 CONF:3 0 CONF:0 0 CONF:0 0 CONF:0 BB SIZE:4
TAG:597 FORMAT:3 ENTANGLED_ADDRESSES:20b4 CONF:3 20b4 CONF:0 0 CONF:0 0 CONF:0 0 CONF:0 0 CONF:0 BB SIZE:0
TAG:12b FORMAT:3 ENTANGLED_ADDRESSES:45c5 CONF:3 30ba CONF:3 0 CONF:0 0 CONF:0 0 CONF:0 0 CONF:0 BB SIZE:1
TAG:1a5c FORMAT:2 ENTANGLED_ADDRESSES:ecc80a6 CONF:3 e8e49be CONF:2 0 CONF:0 0 CONF:0 0 CONF:0 0 CONF:0 BB SIZE:2
TAG:5dc FORMAT:3 ENTANGLED_ADDRESSES:258fa CONF:2 25516 CONF:3 2554d CONF:3 0 CONF:0 0 CONF:0 0 CONF:0 BB SIZE:2
TAG:4d7 FORMAT:5 ENTANGLED_ADDRESSES:36e CONF:3 373 CONF:3 375 CONF:3 0 CONF:0 0 CONF:0 0 CONF:0 BB SIZE:2
TAG:6f0 FORMAT:4 ENTANGLED_ADDRESSES:1786 CONF:3 0 CONF:0 0 CONF:0 0 CONF:0 0 CONF:0 0 CONF:0 BB SIZE:3
TAG:72f FORMAT:3 ENTANGLED_ADDRESSES:880f CONF:3 ed90 CONF:3 0 CONF:0 0 CONF:0 0 CONF:0 0 CONF:0 BB SIZE:13
TAG:712 FORMAT:2 ENTANGLED_ADDRESSES:edf88fe CONF:3 e8e49be CONF:3 0 CONF:0 0 CONF:0 0 CONF:0 0 CONF:0 BB SIZE:0
TAG:44c FORMAT:3 ENTANGLED_ADDRESSES:d53e CONF:3 0 CONF:0 0 CONF:0 0 CONF:0 0 CONF:0 0 CONF:0 BB SIZE:0
TAG:655 FORMAT:1 ENTANGLED_ADDRESSES:0 CONF:0 0 CONF:0 0 CONF:0 0 CONF:0 0 CONF:0 0 CONF:0 BB SIZE:1
TAG:799 FORMAT:3 ENTANGLED_ADDRESSES:c340 CONF:3 a824 CONF:3 1e8e CONF:2 0 CONF:0 0 CONF:0 0 CONF:0 BB SIZE:1
TAG:14f9 FORMAT:3 ENTANGLED_ADDRESSES:b629 CONF:3 f640 CONF:3 0 CONF:0 0 CONF:0 0 CONF:0 0 CONF:0 BB SIZE:2
TAG:f1a FORMAT:6 ENTANGLED_ADDRESSES:cf CONF:3 d6 CONF:3 cb CONF:3 0 CONF:0 0 CONF:0 0 CONF:0 BB SIZE:2
TAG:67f FORMAT:3 ENTANGLED_ADDRESSES:769e CONF:3 0 CONF:0 0 CONF:0 0 CONF:0 0 CONF:0 0 CONF:0 BB SIZE:0
TAG:f6f FORMAT:2 ENTANGLED_ADDRESSES:edcf67b CONF:2 edc43bc CONF:3 0 CONF:0 0 CONF:0 0 CONF:0 0 CONF:0 BB SIZE:2
SET:11
TAG:78b FORMAT:3 ENTANGLED_ADDRESSES:f4bf CONF:3 f4c0 CONF:3 0 CONF:0 0 CONF:0 0 CONF:0 0 CONF:0 BB SIZE:7
TAG:5e0 FORMAT:3 ENTANGLED_ADDRESSES:15c09 CONF:3 0 CONF:0 0 CONF:0 0 CONF:0 0 CONF:0 0 CONF:0 BB SIZE:2
TAG:187 FORMAT:3 ENTANGLED_ADDRESSES:a66c CONF:3 0 CONF:0 0 CONF:0 0 CONF:0 0 CONF:0 0 CONF:0 BB SIZE:e
TAG:643 FORMAT:3 ENTANGLED_ADDRESSES:15004 CONF:3 0 CONF:0 0 CONF:0 0 CONF:0 0 CONF:0 0 CONF:0 BB SIZE:d
TAG:655 FORMAT:3 ENTANGLED_ADDRESSES:5424 CONF:3 0 CONF:0 0 CONF:0 0 CONF:0 0 CONF:0 0 CONF:0 BB SIZE:1
TAG:146 FORMAT:1 ENTANGLED_ADDRESSES:0 CONF:0 0 CONF:0 0 CONF:0 0 CONF:0 0 CONF:0 0 CONF:0 BB SIZE:3
TAG:f1a FORMAT:3 ENTANGLED_ADDRESSES:30ac CONF:3 45c4 CONF:3 0 CONF:0 0 CONF:0 0 CONF:0 0 CONF:0 BB SIZE:1
TAG:15f5 FORMAT:2 ENTANGLED_ADDRESSES:edbfab2 CONF:3 0 CONF:0 0 CONF:0 0 CONF:0 0 CONF:0 0 CONF:0 BB SIZE:0
TAG:124 FORMAT:3 ENTANGLED_ADDRESSES:25281 CONF:3 25015 CONF:3 0 CONF:0 0 CONF:0 0 CONF:0 0 CONF:0 BB SIZE:0
TAG:f2f FORMAT:4 ENTANGLED_ADDRESSES:19a8 CONF:3 0 CONF:0 0 CONF:0 0 CONF:0 0 CONF:0 0 CONF:0 BB SIZE:0
TAG:656 FORMAT:3 ENTANGLED_ADDRESSES:b763 CONF:1 80a5 CONF:1 c333 CONF:3 0 CONF:0 0 CONF:0 0 CONF:0 BB SIZE:0
TAG:5a6 FORMAT:1 ENTANGLED_ADDRESSES:3fffedf8901 CONF:3 0 CONF:0 0 CONF:0 0 CONF:0 0 CONF:0 0 CONF:0 BB SIZE:3
TAG:15f6 FORMAT:4 ENTANGLED_ADDRESSES:1622 CONF:3 bea CONF:3 bee CONF:3 0 CONF:0 0 CONF:0 0 CONF:0 BB SIZE:1
TAG:15f8 FORMAT:3 ENTANGLED_ADDRESSES:e107 CONF:3 0 CONF:0 0 CONF:0 0 CONF:0 0 CONF:0 0 CONF:0 BB SIZE:1
TAG:712 FORMAT:3 ENTANGLED_ADDRESSES:e918 CONF:3 b77d CONF:0 e92e CONF:1 0 CONF:0 0 CONF:0 0 CONF:0 BB SIZE:1
TAG:4e5 FORMAT:6 ENTANGLED_ADDRESSES:51 CONF:3 0 CONF:0 0 CONF:0 0 CONF:0 0 CONF:0 0 CONF:0 BB SIZE:1
SET:12
TAG:1b23 FORMAT:2 ENTANGLED_ADDRESSES:edb5ca5 CONF:2 0 CONF:0 0 CONF:0 0 CONF:0 0 CONF:0 0 CONF:0 BB SIZE:0
TAG:7f8 FORMAT:3 ENTANGLED_ADDRESSES:d7d9 CONF:3 b645 CONF:3 0 CONF:0 0 CONF:0 0 CONF:0 0 CONF:0 BB SIZE:d
TAG:565 FORMAT:3 ENTANGLED_ADDRESSES:eac CONF:3 1533 CONF:3 3596 CONF:3 0 CONF:0 0 CONF:0 0 CONF:0 BB SIZE:7
TAG:69e FORMAT:3 ENTANGLED_ADDRESSES:8193 CONF:3 0 CONF:0 0 CONF:0 0 CONF:0 0 CONF:0 0 CONF:0 BB SIZE:d
TAG:632 FORMAT:6 ENTANGLED_ADDRESSES:2f CONF:3 2c CONF:3 0 CONF:0 0 CONF:0 0 CONF:0 0 CONF:0 BB SIZE:3
TAG:197 FORMAT:6 ENTANGLED_ADDRESSES:61 CONF:3 0 CONF:0 0 CONF:0 0 CONF:0 0 CONF:0 0 CONF:0 BB SIZE:b
TAG:753 FORMAT:3 ENTANGLED_ADDRESSES:8717 CONF:2 0 CONF:0 0 CONF:0 0 CONF:0 0 CONF:0 0 CONF:0 BB SIZE:0
TAG:73d FORMAT:4 ENTANGLED_ADDRESSES:62a CONF:3 0 CONF:0 0 CONF:0 0 CONF:0 0 CONF:0 0 CONF:0 BB SIZE:2
TAG:41e FORMAT:3 ENTANGLED_ADDRESSES:26c2 CONF:3 26c5 CONF:3 c9c4 CONF:3 0 CONF:0 0 CONF:0 0 CONF:0 BB SIZE:b
TAG:6ac FORMAT:3 ENTANGLED_ADDRESSES:2562 CONF:3 0 CONF:0 0 CONF:0 0 CONF:0 0 CONF:0 0 CONF:0 BB SIZE:2
TAG:f74 FORMAT:5 ENTANGLED_ADDRESSES:244 CONF:2 0 CONF:0 0 CONF:0 0 CONF:0 0 CONF:0 0 CONF:0 BB SIZE:0
TAG:7d6 FORMAT:6 ENTANGLED_ADDRESSES:ac CONF:3 0 CONF:0 0 CONF:0 0 CONF:0 0 CONF:0 0 CONF:0 BB SIZE:8
TAG:62d FORMAT:3 ENTANGLED_ADDRESSES:46dc CONF:3 db4d CONF:3 0 CONF:0 0 CONF:0 0 CONF:0 0 CONF:0 BB SIZE:1
TAG:6c FORMAT:1 ENTANGLED_ADDRESSES:0 CONF:0 0 CONF:0 0 CONF:0 0 CONF:0 0 CONF:0 0 CONF:0 BB SIZE:3
TAG:4f4 FORMAT:3 ENTANGLED_ADDRESSES:245c7 CONF:2 245ce CONF:3 245d2 CONF:3 0 CONF:0 0 CONF:0 0 CONF:0 BB SIZE:4
TAG:56f FORMAT:6 ENTANGLED_ADDRESSES:40 CONF:3 0 CONF:0 0 CONF:0 0 CONF:0 0 CONF:0 0 CONF:0 BB SIZE:1
SET:13
TAG:4e5 FORMAT:6 ENTANGLED_ADDRESSES:55 CONF:3 0 CONF:0 0 CONF:0 0 CONF:0 0 CONF:0 0 CONF:0 BB SIZE:0
TAG:796 FORMAT:3 ENTANGLED_ADDRESSES:f0a3 CONF:3 f0a7 CONF:3 1fa7 CONF:3 0 CONF:0 0 CONF:0 0 CONF:0 BB SIZE:1
TAG:621 FORMAT:6 ENTANGLED_ADDRESSES:a8 CONF:3 0 CONF:0 0 CONF:0 0 CONF:0 0 CONF:0 0 CONF:0 BB SIZE:5
TAG:494 FORMAT:4 ENTANGLED_ADDRESSES:1a26 CONF:3 0 CONF:0 0 CONF:0 0 CONF:0 0 CONF:0 0 CONF:0 BB SIZE:1
TAG:4a7 FORMAT:4 ENTANGLED_ADDRESSES:1c1d CONF:3 1be8 CONF:3 0 CONF:0 0 CONF:0 0 CONF:0 0 CONF:0 BB SIZE:3
TAG:44a FORMAT:3 ENTANGLED_ADDRESSES:15bf7 CONF:3 1f3c CONF:3 0 CONF:0 0 CONF:0 0 CONF:0 0 CONF:0 BB SIZE:6
TAG:55a FORMAT:3 ENTANGLED_ADDRESSES:f0b5 CONF:3 12a7f CONF:3 0 CONF:0 0 CONF:0 0 CONF:0 0 CONF:0 BB SIZE:1
TAG:48e FORMAT:6 ENTANGLED_ADDRESSES:2e CONF:3 0 CONF:0 0 CONF:0 0 CONF:0 0 CONF:0 0 CONF:0 BB SIZE:8
TAG:f0d FORMAT:3 ENTANGLED_ADDRESSES:3def7 CONF:2 0 CONF:0 0 CONF:0 0 CONF:0 0 CONF:0 0 CONF:0 BB SIZE:1
TAG:7a3 FORMAT:3 ENTANGLED_ADDRESSES:ef39 CONF:3 0 CONF:0 0 CONF:0 0 CONF:0 0 CONF:0 0 CONF:0 BB SIZE:3
TAG:e1 FORMAT:3 ENTANGLED_ADDRESSES:eea8 CONF:3 0 CONF:0 0 CONF:0 0 CONF:0 0 CONF:0 0 CONF:0 BB SIZE:7
TAG:15f5 FORMAT:5 ENTANGLED_ADDRESSES:232 CONF:2 0 CONF:0 0 CONF:0 0 CONF:0 0 CONF:0 0 CONF:0 BB SIZE:0
TAG:712 FORMAT:3 ENTANGLED_ADDRESSES:25549 CONF:3 23f6a CONF:3 0 CONF:0 0 CONF:0 0 CONF:0 0 CONF:0 BB SIZE:1
TAG:f33 FORMAT:4 ENTANGLED_ADDRESSES:459 CONF:3 455 CONF:3 45d CONF:3 45e CONF:3 0 CONF:0 0 CONF:0 BB SIZE:2
TAG:14f9 FORMAT:2 ENTANGLED_ADDRESSES:ecce92c CONF:3 0 CONF:0 0 CONF:0 0 CONF:0 0 CONF:0 0 CONF:0 BB SIZE:0
TAG:60b FORMAT:6 ENTANGLED_ADDRESSES:61 CONF:3 0 CONF:0 0 CONF:0 0 CONF:0 0 CONF:0 0 CONF:0 BB SIZE:0
SET:14
TAG:1b11 FORMAT:2 ENTANGLED_ADDRESSES:e8e4a0c CONF:0 edfc813 CONF:2 edfc762 CONF:0 760 CONF:0 0 CONF:0 0 CONF:0 BB SIZE:1
TAG:7f5 FORMAT:3 ENTANGLED_ADDRESSES:1153d CONF:2 6d93 CONF:2 0 CONF:0 0 CONF:0 0 CONF:0 0 CONF:0 BB SIZE:7
TAG:5e3 FORMAT:3 ENTANGLED_ADDRESSES:709f CONF:2 240d4 CONF:2 6f91 CONF:3 0 CONF:0 0 CONF:0 0 CONF:0 BB SIZE:1
TAG:e2 FORMAT:6 ENTANGLED_ADDRESSES:7e CONF:1 7d CONF:2 0 CONF:0 0 CONF:0 0 CONF:0 0 CONF:0 BB SIZE:3
TAG:f5e FORMAT:4 ENTANGLED_ADDRESSES:1bfb CONF:3 1c01 CONF:3 0 CONF:0 0 CONF:0 0 CONF:0 0 CONF:0 BB SIZE:0
TAG:f1a FORMAT:5 ENTANGLED_ADDRESSES:d9 CONF:3 dc CONF:3 dd CONF:3 d7 CONF:3 c2 CONF:3 0 CONF:0 BB SIZE:1
TAG:f74 FORMAT:4 ENTANGLED_ADDRESSES:1a45 CONF:2 1151 CONF:2 0 CONF:0 0 CONF:0 0 CONF:0 0 CONF:0 BB SIZE:0
TAG:f46 FORMAT:5 ENTANGLED_ADDRESSES:c0 CONF:3 0 CONF:0 0 CONF:0 0 CONF:0 0 CONF:0 0 CONF:0 BB SIZE:0
TAG:6c FORMAT:6 ENTANGLED_ADDRESSES:89 CONF:2 84 CONF:2 86 CONF:2 0 CONF:0 0 CONF:0 0 CONF:0 BB SIZE:2
TAG:596 FORMAT:3 ENTANGLED_ADDRESSES:7e6a CONF:3 4837 CONF:2 0 CONF:0 0 CONF:0 0 CONF:0 0 CONF:0 BB SIZE:2
TAG:4bf FORMAT:3 ENTANGLED_ADDRESSES:9a6c CONF:3 0 CONF:0 0 CONF:0 0 CONF:0 0 CONF:0 0 CONF:0 BB SIZE:0
TAG:1287 FORMAT:2 ENTANGLED_ADDRESSES:ecc4f7c CONF:3 0 CONF:0 0 CONF:0 0 CONF:0 0 CONF:0 0 CONF:0 BB SIZE:0
TAG:632 FORMAT:3 ENTANGLED_ADDRESSES:dd2c CONF:2 15360 CONF:3 15365 CONF:3 0 CONF:0 0 CONF:0 0 CONF:0 BB SIZE:6
TAG:422 FORMAT:3 ENTANGLED_ADDRESSES:a956 CONF:3 0 CONF:0 0 CONF:0 0 CONF:0 0 CONF:0 0 CONF:0 BB SIZE:2
TAG:6f FORMAT:6 ENTANGLED_ADDRESSES:81 CONF:2 91 CONF:2 89 CONF:3 84 CONF:3 86 CONF:3 0 CONF:0 BB SIZE:8
TAG:56f FORMAT:6 ENTANGLED_ADDRESSES:0 CONF:3 0 CONF:0 0 CONF:0 0 CONF:0 0 CONF:0 0 CONF:0 BB SIZE:3
SET:15
TAG:a5 FORMAT:1 ENTANGLED_ADDRESSES:0 CONF:0 0 CONF:0 0 CONF:0 0 CONF:0 0 CONF:0 0 CONF:0 BB SIZE:1
TAG:5e2 FORMAT:3 ENTANGLED_ADDRESSES:35c3 CONF:2 bd19 CONF:3 32fe CONF:3 0 CONF:0 0 CONF:0 0 CONF:0 BB SIZE:0
TAG:7a9 FORMAT:3 ENTANGLED_ADDRESSES:146b4 CONF:3 0 CONF:0 0 CONF:0 0 CONF:0 0 CONF:0 0 CONF:0 BB SIZE:3
TAG:f74 FORMAT:4 ENTANGLED_ADDRESSES:1613 CONF:3 0 CONF:0 0 CONF:0 0 CONF:0 0 CONF:0 0 CONF:0 BB SIZE:2
TAG:727 FORMAT:6 ENTANGLED_ADDRESSES:36 CONF:3 0 CONF:0 0 CONF:0 0 CONF:0 0 CONF:0 0 CONF:0 BB SIZE:4
TAG:620 FORMAT:3 ENTANGLED_ADDRESSES:5347 CONF:3 e373 CONF:2 100ba CONF:3 0 CONF:0 0 CONF:0 0 CONF:0 BB SIZE:2
TAG:6e9 FORMAT:3 ENTANGLED_ADDRESSES:a955 CONF:1 101df CONF:3 a956 CONF:2 0 CONF:0 0 CONF:0 0 CONF:0 BB SIZE:1
TAG:47f FORMAT:3 ENTANGLED_ADDRESSES:95c9 CONF:3 0 CONF:0 0 CONF:0 0 CONF:0 0 CONF:0 0 CONF:0 BB SIZE:21
TAG:14f9 FORMAT:2 ENTANGLED_ADDRESSES:edcf644 CONF:3 ecc1534 CONF:3 1640 CONF:0 0 CONF:0 0 CONF:0 0 CONF:0 BB SIZE:1
TAG:f5e FORMAT:4 ENTANGLED_ADDRESSES:113a CONF:2 1c01 CONF:2 0 CONF:0 0 CONF:0 0 CONF:0 0 CONF:0 BB SIZE:1
TAG:5a4 FORMAT:3 ENTANGLED_ADDRESSES:25533 CONF:2 77b5 CONF:3 25f1d CONF:2 0 CONF:0 0 CONF:0 0 CONF:0 BB SIZE:1
TAG:16f FORMAT:6 ENTANGLED_ADDRESSES:32 CONF:3 36 CONF:3 0 CONF:0 0 CONF:0 0 CONF:0 0 CONF:0 BB SIZE:1
TAG:6ac FORMAT:6 ENTANGLED_ADDRESSES:b3 CONF:3 0 CONF:0 0 CONF:0 0 CONF:0 0 CONF:0 0 CONF:0 BB SIZE:2
TAG:68a FORMAT:3 ENTANGLED_ADDRESSES:3993 CONF:3 0 CONF:0 0 CONF:0 0 CONF:0 0 CONF:0 0 CONF:0 BB SIZE:4
TAG:56c FORMAT:3 ENTANGLED_ADDRESSES:4afe CONF:3 389f CONF:3 0 CONF:0 0 CONF:0 0 CONF:0 0 CONF:0 BB SIZE:0
TAG:6ce FORMAT:3 ENTANGLED_ADDRESSES:a4da CONF:3 a4de CONF:3 0 CONF:0 0 CONF:0 0 CONF:0 0 CONF:0 BB SIZE:1
SET:16
TAG:616 FORMAT:3 ENTANGLED_ADDRESSES:3f60 CONF:2 0 CONF:0 0 CONF:0 0 CONF:0 0 CONF:0 0 CONF:0 BB SIZE:8
TAG:55b FORMAT:3 ENTANGLED_ADDRESSES:13b69 CONF:3 4407 CONF:2 13b6a CONF:3 0 CONF:0 0 CONF:0 0 CONF:0 BB SIZE:1
TAG:5c4 FORMAT:3 ENTANGLED_ADDRESSES:767e CONF:3 0 CONF:0 0 CONF:0 0 CONF:0 0 CONF:0 0 CONF:0 BB SIZE:2
TAG:1287 FORMAT:6 ENTANGLED_ADDRESSES:47 CONF:0 46 CONF:1 0 CONF:0 0 CONF:0 0 CONF:0 0 CONF:0 BB SIZE:1
TAG:17f FORMAT:3 ENTANGLED_ADDRESSES:6da5 CONF:3 0 CONF:0 0 CONF:0 0 CONF:0 0 CONF:0 0 CONF:0 BB SIZE:d
TAG:552 FORMAT:3 ENTANGLED_ADDRESSES:3bca CONF:3 f50b CONF:3 f511 CONF:3 0 CONF:0 0 CONF:0 0 CONF:0 BB SIZE:1
TAG:19f FORMAT:3 ENTANGLED_ADDRESSES:15bd2 CONF:3 15c55 CONF:3 f1dd CONF:3 0 CONF:0 0 CONF:0 0 CONF:0 BB SIZE:3
TAG:61a FORMAT:3 ENTANGLED_ADDRESSES:2290 CONF:3 1f97 CONF:3 a958 CONF:3 0 CONF:0 0 CONF:0 0 CONF:0 BB SIZE:5
TAG:f44 FORMAT:6 ENTANGLED_ADDRESSES:37 CONF:3 d2 CONF:2 38 CONF:3 3 CONF:3 0 CONF:0 0 CONF:0 BB SIZE:4
TAG:7a3 FORMAT:3 ENTANGLED_ADDRESSES:3584 CONF:1 358f CONF:2 ef3a CONF:3 0 CONF:0 0 CONF:0 0 CONF:0 BB SIZE:2
TAG:f5e FORMAT:4 ENTANGLED_ADDRESSES:1bfb CONF:1 0 CONF:0 0 CONF:0 0 CONF:0 0 CONF:0 0 CONF:0 BB SIZE:0
TAG:4d0 FORMAT:3 ENTANGLED_ADDRESSES:276f4 CONF:3 212c CONF:3 276ff CONF:2 0 CONF:0 0 CONF:0 0 CONF:0 BB SIZE:2
TAG:56f FORMAT:5 ENTANGLED_ADDRESSES:323 CONF:2 346 CONF:2 2f0 CONF:3 0 CONF:0 0 CONF:0 0 CONF:0 BB SIZE:1
TAG:1591 FORMAT:4 ENTANGLED_ADDRESSES:bee CONF:2 1641 CONF:2 0 CONF:0 0 CONF:0 0 CONF:0 0 CONF:0 BB SIZE:1
TAG:1af FORMAT:6 ENTANGLED_ADDRESSES:77 CONF:3 0 CONF:0 0 CONF:0 0 CONF:0 0 CONF:0 0 CONF:0 BB SIZE:5
TAG:14f9 FORMAT:2 ENTANGLED_ADDRESSES:eccbfd2 CONF:0 ecc1534 CONF:1 0 CONF:0 0 CONF:0 0 CONF:0 0 CONF:0 BB SIZE:1
SET:17
TAG:6ba FORMAT:3 ENTANGLED_ADDRESSES:6b0f CONF:3 0 CONF:0 0 CONF:0 0 CONF:0 0 CONF:0 0 CONF:0 BB SIZE:2
TAG:f47 FORMAT:3 ENTANGLED_ADDRESSES:4a84 CONF:3 0 CONF:0 0 CONF:0 0 CONF:0 0 CONF:0 0 CONF:0 BB SIZE:3
TAG:518 FORMAT:1 ENTANGLED_ADDRESSES:0 CONF:0 0 CONF:0 0 CONF:0 0 CONF:0 0 CONF:0 0 CONF:0 BB SIZE:1
TAG:15f8 FORMAT:3 ENTANGLED_ADDRESSES:377e CONF:3 0 CONF:0 0 CONF:0 0 CONF:0 0 CONF:0 0 CONF:0 BB SIZE:2
TAG:f50 FORMAT:6 ENTANGLED_ADDRESSES:65 CONF:2 68 CONF:2 67 CONF:3 0 CONF:0 0 CONF:0 0 CONF:0 BB SIZE:2
TAG:4a4 FORMAT:6 ENTANGLED_ADDRESSES:e0 CONF:3 d8 CONF:3 0 CONF:0 0 CONF:0 0 CONF:0 0 CONF:0 BB SIZE:d
TAG:58c FORMAT:3 ENTANGLED_ADDRESSES:4842 CONF:2 228d1 CONF:2 228d0 CONF:2 0 CONF:0 0 CONF:0 0 CONF:0 BB SIZE:0
TAG:5a4 FORMAT:3 ENTANGLED_ADDRESSES:fc1a CONF:1 0 CONF:0 0 CONF:0 0 CONF:0 0 CONF:0 0 CONF:0 BB SIZE:2
TAG:55b FORMAT:3 ENTANGLED_ADDRESSES:3a7e CONF:3 3a43 CONF:3 3a44 CONF:3 0 CONF:0 0 CONF:0 0 CONF:0 BB SIZE:2
TAG:560 FORMAT:3 ENTANGLED_ADDRESSES:4676 CONF:3 7c99 CONF:3 0 CONF:0 0 CONF:0 0 CONF:0 0 CONF:0 BB SIZE:3
TAG:591 FORMAT:6 ENTANGLED_ADDRESSES:ed CONF:3 c5 CONF:3 ef CONF:3 eb CONF:3 ec CONF:3 e9 CONF:3 BB SIZE:1
TAG:75f FORMAT:6 ENTANGLED_ADDRESSES:d5 CONF:3 0 CONF:0 0 CONF:0 0 CONF:0 0 CONF:0 0 CONF:0 BB SIZE:1
TAG:19e FORMAT:3 ENTANGLED_ADDRESSES:7831 CONF:3 0 CONF:0 0 CONF:0 0 CONF:0 0 CONF:0 0 CONF:0 BB SIZE:9
TAG:456 FORMAT:3 ENTANGLED_ADDRESSES:eac CONF:3 15364 CONF:3 0 CONF:0 0 CONF:0 0 CONF:0 0 CONF:0 BB SIZE:0
TAG:19f FORMAT:3 ENTANGLED_ADDRESSES:6ac1 CONF:3 0 CONF:0 0 CONF:0 0 CONF:0 0 CONF:0 0 CONF:0 BB SIZE:4
TAG:1c0 FORMAT:3 ENTANGLED_ADDRESSES:ac65 CONF:3 0 CONF:0 0 CONF:0 0 CONF:0 0 CONF:0 0 CONF:0 BB SIZE:6
SET:18
TAG:150 FORMAT:3 ENTANGLED_ADDRESSES:7c6b CONF:3 0 CONF:0 0 CONF:0 0 CONF:0 0 CONF:0 0 CONF:0 BB SIZE:3
TAG:7be FORMAT:2 ENTANGLED_ADDRESSES:edcba33 CONF:3 0 CONF:0 0 CONF:0 0 CONF:0 0 CONF:0 0 CONF:0 BB SIZE:4
TAG:ae FORMAT:4 ENTANGLED_ADDRESSES:13c0 CONF:3 0 CONF:0 0 CONF:0 0 CONF:0 0 CONF:0 0 CONF:0 BB SIZE:0
TAG:534 FORMAT:3 ENTANGLED_ADDRESSES:15ba4 CONF:3 0 CONF:0 0 CONF:0 0 CONF:0 0 CONF:0 0 CONF:0 BB SIZE:1
TAG:6ac FORMAT:3 ENTANGLED_ADDRESSES:a952 CONF:3 0 CONF:0 0 CONF:0 0 CONF:0 0 CONF:0 0 CONF:0 BB SIZE:1
TAG:6c6 FORMAT:3 ENTANGLED_ADDRESSES:7831 CONF:3 0 CONF:0 0 CONF:0 0 CONF:0 0 CONF:0 0 CONF:0 BB SIZE:4
TAG:701 FORMAT:3 ENTANGLED_ADDRESSES:3b22 CONF:3 214a CONF:3 3b13 CONF:2 0 CONF:0 0 CONF:0 0 CONF:0 BB SIZE:0
TAG:53e FORMAT:3 ENTANGLED_ADDRESSES:d0fb CONF:1 1564e CONF:1 80b1 CONF:1 0 CONF:0 0 CONF:0 0 CONF:0 BB SIZE:1
TAG:f44 FORMAT:4 ENTANGLED_ADDRESSES:15f CONF:3 0 CONF:0 0 CONF:0 0 CONF:0 0 CONF:0 0 CONF:0 BB SIZE:1
TAG:1bc FORMAT:3 ENTANGLED_ADDRESSES:c5ab CONF:3 0 CONF:0 0 CONF:0 0 CONF:0 0 CONF:0 0 CONF:0 BB SIZE:5
TAG:e2 FORMAT:3 ENTANGLED_ADDRESSES:c340 CONF:3 c33e CONF:3 0 CONF:0 0 CONF:0 0 CONF:0 0 CONF:0 BB SIZE:9
TAG:64b FORMAT:2 ENTANGLED_ADDRESSES:eccd7d9 CONF:3 e8e4a5a CONF:3 0 CONF:0 0 CONF:0 0 CONF:0 0 CONF:0 BB SIZE:e
TAG:560 FORMAT:3 ENTANGLED_ADDRESSES:8877 CONF:3 88b5 CONF:3 0 CONF:0 0 CONF:0 0 CONF:0 0 CONF:0 BB SIZE:2
TAG:f72 FORMAT:3 ENTANGLED_ADDRESSES:25280 CONF:3 10155 CONF:2 26393 CONF:3 0 CONF:0 0 CONF:0 0 CONF:0 BB SIZE:6
TAG:72f FORMAT:6 ENTANGLED_ADDRESSES:ab CONF:3 a6 CONF:3 0 CONF:0 0 CONF:0 0 CONF:0 0 CONF:0 BB SIZE:10
TAG:70e FORMAT:3 ENTANGLED_ADDRESSES:14b5 CONF:3 0 CONF:0 0 CONF:0 0 CONF:0 0 CONF:0 0 CONF:0 BB SIZE:1
SET:19
TAG:f4b FORMAT:3 ENTANGLED_ADDRESSES:25554 CONF:3 23f66 CONF:3 2553d CONF:3 0 CONF:0 0 CONF:0 0 CONF:0 BB SIZE:2
TAG:6bb FORMAT:3 ENTANGLED_ADDRESSES:46eb CONF:3 0 CONF:0 0 CONF:0 0 CONF:0 0 CONF:0 0 CONF:0 BB SIZE:0
TAG:678 FORMAT:3 ENTANGLED_ADDRESSES:1d8b CONF:3 2707 CONF:2 0 CONF:0 0 CONF:0 0 CONF:0 0 CONF:0 BB SIZE:d
TAG:402 FORMAT:6 ENTANGLED_ADDRESSES:80 CONF:3 82 CONF:3 0 CONF:0 0 CONF:0 0 CONF:0 0 CONF:0 BB SIZE:4
TAG:67e FORMAT:3 ENTANGLED_ADDRESSES:edf CONF:3 edb CONF:3 0 CONF:0 0 CONF:0 0 CONF:0 0 CONF:0 BB SIZE:5
TAG:4d1 FORMAT:5 ENTANGLED_ADDRESSES:278 CONF:2 0 CONF:0 0 CONF:0 0 CONF:0 0 CONF:0 0 CONF:0 BB SIZE:2
TAG:1c1 FORMAT:1 ENTANGLED_ADDRESSES:0 CONF:0 0 CONF:0 0 CONF:0 0 CONF:0 0 CONF:0 0 CONF:0 BB SIZE:1
TAG:7be FORMAT:2 ENTANGLED_ADDRESSES:edf891b CONF:3 ecca209 CONF:0 0 CONF:0 0 CONF:0 0 CONF:0 0 CONF:0 BB SIZE:3
TAG:419 FORMAT:3 ENTANGLED_ADDRESSES:b25d CONF:2 b260 CONF:2 0 CONF:0 0 CONF:0 0 CONF:0 0 CONF:0 BB SIZE:1
TAG:4dd FORMAT:5 ENTANGLED_ADDRESSES:34c CONF:2 267 CONF:3 27e CONF:3 c3 CONF:3 c0 CONF:3 0 CONF:0 BB SIZE:1
TAG:ff6 FORMAT:2 ENTANGLED_ADDRESSES:edcabed CONF:3 edb77d3 CONF:1 0 CONF:0 0 CONF:0 0 CONF:0 0 CONF:0 BB SIZE:0
TAG:f50 FORMAT:4 ENTANGLED_ADDRESSES:631 CONF:3 61d CONF:3 620 CONF:3 626 CONF:3 0 CONF:0 0 CONF:0 BB SIZE:6
TAG:421 FORMAT:6 ENTANGLED_ADDRESSES:83 CONF:3 0 CONF:0 0 CONF:0 0 CONF:0 0 CONF:0 0 CONF:0 BB SIZE:7
TAG:5bf FORMAT:3 ENTANGLED_ADDRESSES:7043 CONF:3 25712 CONF:3 0 CONF:0 0 CONF:0 0 CONF:0 0 CONF:0 BB SIZE:2
TAG:15f8 FORMAT:3 ENTANGLED_ADDRESSES:b63b CONF:1 101a8 CONF:2 b5c5 CONF:1 0 CONF:0 0 CONF:0 0 CONF:0 BB SIZE:2
TAG:e80 FORMAT:5 ENTANGLED_ADDRESSES:34d CONF:2 0 CONF:0 0 CONF:0 0 CONF:0 0 CONF:0 0 CONF:0 BB SIZE:4
SET:20
TAG:1a5c FORMAT:2 ENTANGLED_ADDRESSES:ecce01c CONF:3 ecce01a CONF:1 0 CONF:0 0 CONF:0 0 CONF:0 0 CONF:0 BB SIZE:1
TAG:446 FORMAT:3 ENTANGLED_ADDRESSES:aa49 CONF:3 0 CONF:0 0 CONF:0 0 CONF:0 0 CONF:0 0 CONF:0 BB SIZE:8
TAG:25 FORMAT:3 ENTANGLED_ADDRESSES:5d75 CONF:3 0 CONF:0 0 CONF:0 0 CONF:0 0 CONF:0 0 CONF:0 BB SIZE:4
TAG:525 FORMAT:6 ENTANGLED_ADDRESSES:44 CONF:3 0 CONF:0 0 CONF:0 0 CONF:0 0 CONF:0 0 CONF:0 BB SIZE:1
TAG:f49 FORMAT:3 ENTANGLED_ADDRESSES:4654 CONF:3 25705 CONF:3 256f9 CONF:3 0 CONF:0 0 CONF:0 0 CONF:0 BB SIZE:1
TAG:e86 FORMAT:3 ENTANGLED_ADDRESSES:3eb2 CONF:2 3ea5 CONF:3 8869 CONF:3 0 CONF:0 0 CONF:0 0 CONF:0 BB SIZE:1
TAG:1620 FORMAT:3 ENTANGLED_ADDRESSES:2408 CONF:3 0 CONF:0 0 CONF:0 0 CONF:0 0 CONF:0 0 CONF:0 BB SIZE:0
TAG:5d7 FORMAT:3 ENTANGLED_ADDRESSES:5c0b CONF:3 5bd6 CONF:3 0 CONF:0 0 CONF:0 0 CONF:0 0 CONF:0 BB SIZE:1
TAG:55b FORMAT:3 ENTANGLED_ADDRESSES:3846 CONF:3 4a84 CONF:3 0 CONF:0 0 CONF:0 0 CONF:0 0 CONF:0 BB SIZE:1
TAG:e3 FORMAT:3 ENTANGLED_ADDRESSES:b581 CONF:2 2e66 CONF:3 0 CONF:0 0 CONF:0 0 CONF:0 0 CONF:0 BB SIZE:5
TAG:5f6 FORMAT:6 ENTANGLED_ADDRESSES:ac CONF:3 ab CONF:3 0 CONF:0 0 CONF:0 0 CONF:0 0 CONF:0 BB SIZE:3
TAG:701 FORMAT:3 ENTANGLED_ADDRESSES:3b13 CONF:2 f9e7 CONF:2 46f0 CONF:2 0 CONF:0 0 CONF:0 0 CONF:0 BB SIZE:0
TAG:4d1 FORMAT:5 ENTANGLED_ADDRESSES:278 CONF:3 0 CONF:0 0 CONF:0 0 CONF:0 0 CONF:0 0 CONF:0 BB SIZE:3
TAG:53f FORMAT:6 ENTANGLED_ADDRESSES:de CONF:3 e0 CONF:3 0 CONF:0 0 CONF:0 0 CONF:0 0 CONF:0 BB SIZE:1
TAG:591 FORMAT:3 ENTANGLED_ADDRESSES:27766 CONF:3 f7f0 CONF:3 79c3 CONF:3 0 CONF:0 0 CONF:0 0 CONF:0 BB SIZE:3
TAG:4f5 FORMAT:3 ENTANGLED_ADDRESSES:74af CONF:3 0 CONF:0 0 CONF:0 0 CONF:0 0 CONF:0 0 CONF:0 BB SIZE:2
SET:21
TAG:4de FORMAT:4 ENTANGLED_ADDRESSES:1c19 CONF:2 1a67 CONF:2 0 CONF:0 0 CONF:0 0 CONF:0 0 CONF:0 BB SIZE:0
TAG:708 FORMAT:3 ENTANGLED_ADDRESSES:681d CONF:3 8c8e CONF:3 224b CONF:3 0 CONF:0 0 CONF:0 0 CONF:0 BB SIZE:d
TAG:4f8 FORMAT:3 ENTANGLED_ADDRESSES:e471 CONF:3 29cd CONF:2 29db CONF:3 0 CONF:0 0 CONF:0 0 CONF:0 BB SIZE:3
TAG:f1f FORMAT:6 ENTANGLED_ADDRESSES:ce CONF:3 d4 CONF:3 0 CONF:0 0 CONF:0 0 CONF:0 0 CONF:0 BB SIZE:3
TAG:4d7 FORMAT:6 ENTANGLED_ADDRESSES:a0 CONF:0 9a CONF:3 98 CONF:3 0 CONF:0 0 CONF:0 0 CONF:0 BB SIZE:1
TAG:53d FORMAT:3 ENTANGLED_ADDRESSES:68d CONF:3 0 CONF:0 0 CONF:0 0 CONF:0 0 CONF:0 0 CONF:0 BB SIZE:2
TAG:e8d FORMAT:3 ENTANGLED_ADDRESSES:25efc CONF:3 0 CONF:0 0 CONF:0 0 CONF:0 0 CONF:0 0 CONF:0 BB SIZE:2
TAG:f21 FORMAT:4 ENTANGLED_ADDRESSES:14ae CONF:3 0 CONF:0 0 CONF:0 0 CONF:0 0 CONF:0 0 CONF:0 BB SIZE:2
TAG:44a FORMAT:4 ENTANGLED_ADDRESSES:f7d CONF:3 0 CONF:0 0 CONF:0 0 CONF:0 0 CONF:0 0 CONF:0 BB SIZE:0
TAG:25 FORMAT:3 ENTANGLED_ADDRESSES:3efb CONF:3 0 CONF:0 0 CONF:0 0 CONF:0 0 CONF:0 0 CONF:0 BB SIZE:0
TAG:6c6 FORMAT:6 ENTANGLED_ADDRESSES:a3 CONF:3 0 CONF:0 0 CONF:0 0 CONF:0 0 CONF:0 0 CONF:0 BB SIZE:2
TAG:6f FORMAT:1 ENTANGLED_ADDRESSES:0 CONF:0 0 CONF:0 0 CONF:0 0 CONF:0 0 CONF:0 0 CONF:0 BB SIZE:3
TAG:f09 FORMAT:6 ENTANGLED_ADDRESSES:4c CONF:3 4f CONF:3 0 CONF:0 0 CONF:0 0 CONF:0 0 CONF:0 BB SIZE:2
TAG:15f4 FORMAT:2 ENTANGLED_ADDRESSES:ecc0f93 CONF:3 0 CONF:0 0 CONF:0 0 CONF:0 0 CONF:0 0 CONF:0 BB SIZE:0
TAG:15f8 FORMAT:6 ENTANGLED_ADDRESSES:18 CONF:3 4 CONF:3 0 CONF:0 0 CONF:0 0 CONF:0 0 CONF:0 BB SIZE:2
TAG:67f FORMAT:6 ENTANGLED_ADDRESSES:4 CONF:3 0 CONF:0 0 CONF:0 0 CONF:0 0 CONF:0 0 CONF:0 BB SIZE:1
SET:22
TAG:7fc FORMAT:6 ENTANGLED_ADDRESSES:79 CONF:3 fa CONF:2 0 CONF:0 0 CONF:0 0 CONF:0 0 CONF:0 BB SIZE:1
TAG:7a1 FORMAT:3 ENTANGLED_ADDRESSES:dd28 CONF:3 0 CONF:0 0 CONF:0 0 CONF:0 0 CONF:0 0 CONF:0 BB SIZE:3
TAG:e85 FORMAT:3 ENTANGLED_ADDRESSES:23e7e CONF:2 23e80 CONF:3 776e CONF:3 0 CONF:0 0 CONF:0 0 CONF:0 BB SIZE:1
TAG:e1 FORMAT:2 ENTANGLED_ADDRESSES:edcba33 CONF:3 edf891b CONF:3 0 CONF:0 0 CONF:0 0 CONF:0 0 CONF:0 BB SIZE:0
TAG:5a4 FORMAT:4 ENTANGLED_ADDRESSES:19e5 CONF:2 0 CONF:0 0 CONF:0 0 CONF:0 0 CONF:0 0 CONF:0 BB SIZE:2
TAG:6ac FORMAT:3 ENTANGLED_ADDRESSES:a6c5 CONF:2 0 CONF:0 0 CONF:0 0 CONF:0 0 CONF:0 0 CONF:0 BB SIZE:0
TAG:1a5c FORMAT:2 ENTANGLED_ADDRESSES:ecc2a65 CONF:3 ecc7a90 CONF:3 0 CONF:0 0 CONF:0 0 CONF:0 0 CONF:0 BB SIZE:2
TAG:4de FORMAT:5 ENTANGLED_ADDRESSES:243 CONF:1 0 CONF:0 0 CONF:0 0 CONF:0 0 CONF:0 0 CONF:0 BB SIZE:1
TAG:552 FORMAT:3 ENTANGLED_ADDRESSES:1f9d CONF:3 0 CONF:0 0 CONF:0 0 CONF:0 0 CONF:0 0 CONF:0 BB SIZE:16
TAG:6b5 FORMAT:3 ENTANGLED_ADDRESSES:f48 CONF:3 0 CONF:0 0 CONF:0 0 CONF:0 0 CONF:0 0 CONF:0 BB SIZE:3
TAG:19f FORMAT:1 ENTANGLED_ADDRESSES:0 CONF:0 0 CONF:0 0 CONF:0 0 CONF:0 0 CONF:0 0 CONF:0 BB SIZE:b
TAG:750 FORMAT:3 ENTANGLED_ADDRESSES:3b49 CONF:0 c066 CONF:2 a46d CONF:3 0 CONF:0 0 CONF:0 0 CONF:0 BB SIZE:5
TAG:5ed FORMAT:3 ENTANGLED_ADDRESSES:e872 CONF:2 e877 CONF:3 e87c CONF:3 0 CONF:0 0 CONF:0 0 CONF:0 BB SIZE:7
TAG:2d FORMAT:3 ENTANGLED_ADDRESSES:14003 CONF:3 16f7e CONF:0 10206 CONF:2 0 CONF:0 0 CONF:0 0 CONF:0 BB SIZE:5
TAG:1e8 FORMAT:3 ENTANGLED_ADDRESSES:4483 CONF:2 1ba7 CONF:3 0 CONF:0 0 CONF:0 0 CONF:0 0 CONF:0 BB SIZE:1
TAG:4d7 FORMAT:3 ENTANGLED_ADDRESSES:3b0d CONF:3 f9f6 CONF:3 0 CONF:0 0 CONF:0 0 CONF:0 0 CONF:0 BB SIZE:1
SET:23
TAG:f41 FORMAT:3 ENTANGLED_ADDRESSES:23f86 CONF:2 2564a CONF:2 0 CONF:0 0 CONF:0 0 CONF:0 0 CONF:0 BB SIZE:1
TAG:f4b FORMAT:3 ENTANGLED_ADDRESSES:30b2 CONF:3 0 CONF:0 0 CONF:0 0 CONF:0 0 CONF:0 0 CONF:0 BB SIZE:2
TAG:73e FORMAT:3 ENTANGLED_ADDRESSES:f87 CONF:3 0 CONF:0 0 CONF:0 0 CONF:0 0 CONF:0 0 CONF:0 BB SIZE:0
TAG:735 FORMAT:3 ENTANGLED_ADDRESSES:ef9 CONF:3 efc CONF:3 0 CONF:0 0 CONF:0 0 CONF:0 0 CONF:0 BB SIZE:1
TAG:e2 FORMAT:3 ENTANGLED_ADDRESSES:c924 CONF:3 0 CONF:0 0 CONF:0 0 CONF:0 0 CONF:0 0 CONF:0 BB SIZE:7
TAG:4d8 FORMAT:3 ENTANGLED_ADDRESSES:12116 CONF:3 0 CONF:0 0 CONF:0 0 CONF:0 0 CONF:0 0 CONF:0 BB SIZE:7
TAG:70e FORMAT:6 ENTANGLED_ADDRESSES:2f CONF:3 0 CONF:0 0 CONF:0 0 CONF:0 0 CONF:0 0 CONF:0 BB SIZE:5
TAG:74a FORMAT:3 ENTANGLED_ADDRESSES:f68c CONF:3 168a6 CONF:3 0 CONF:0 0 CONF:0 0 CONF:0 0 CONF:0 BB SIZE:1
TAG:7b9 FORMAT:3 ENTANGLED_ADDRESSES:a3ab CONF:3 15baf CONF:3 bf93 CONF:3 0 CONF:0 0 CONF:0 0 CONF:0 BB SIZE:6
TAG:6b5 FORMAT:3 ENTANGLED_ADDRESSES:ca9b CONF:3 0 CONF:0 0 CONF:0 0 CONF:0 0 CONF:0 0 CONF:0 BB SIZE:2
TAG:542 FORMAT:3 ENTANGLED_ADDRESSES:43da CONF:3 f9b1 CONF:3 0 CONF:0 0 CONF:0 0 CONF:0 0 CONF:0 BB SIZE:2
TAG:44c FORMAT:3 ENTANGLED_ADDRESSES:1f9a CONF:3 6b2f CONF:3 e1d2 CONF:3 0 CONF:0 0 CONF:0 0 CONF:0 BB SIZE:9
TAG:f4d FORMAT:4 ENTANGLED_ADDRESSES:810 CONF:3 50 CONF:3 47 CONF:3 0 CONF:0 0 CONF:0 0 CONF:0 BB SIZE:1
TAG:e85 FORMAT:3 ENTANGLED_ADDRESSES:277ed CONF:3 0 CONF:0 0 CONF:0 0 CONF:0 0 CONF:0 0 CONF:0 BB SIZE:2
TAG:48e FORMAT:3 ENTANGLED_ADDRESSES:ed9b CONF:3 0 CONF:0 0 CONF:0 0 CONF:0 0 CONF:0 0 CONF:0 BB SIZE:1
TAG:14b1 FORMAT:3 ENTANGLED_ADDRESSES:b59d CONF:3 0 CONF:0 0 CONF:0 0 CONF:0 0 CONF:0 0 CONF:0 BB SIZE:1
SET:24
TAG:6b9 FORMAT:3 ENTANGLED_ADDRESSES:1488e CONF:3 0 CONF:0 0 CONF:0 0 CONF:0 0 CONF:0 0 CONF:0 BB SIZE:0
TAG:525 FORMAT:6 ENTANGLED_ADDRESSES:49 CONF:3 0 CONF:0 0 CONF:0 0 CONF:0 0 CONF:0 0 CONF:0 BB SIZE:1
TAG:187 FORMAT:3 ENTANGLED_ADDRESSES:9602 CONF:2 0 CONF:0 0 CONF:0 0 CONF:0 0 CONF:0 0 CONF:0 BB SIZE:3
TAG:4d7 FORMAT:5 ENTANGLED_ADDRESSES:a0 CONF:2 0 CONF:0 0 CONF:0 0 CONF:0 0 CONF:0 0 CONF:0 BB SIZE:2
TAG:57f FORMAT:3 ENTANGLED_ADDRESSES:11cc9 CONF:3 c24d CONF:0 35c5 CONF:3 0 CONF:0 0 CONF:0 0 CONF:0 BB SIZE:4
TAG:703 FORMAT:3 ENTANGLED_ADDRESSES:46f4 CONF:2 277e2 CONF:3 3902 CONF:2 0 CONF:0 0 CONF:0 0 CONF:0 BB SIZE:2
TAG:690 FORMAT:3 ENTANGLED_ADDRESSES:7831 CONF:3 783a CONF:3 0 CONF:0 0 CONF:0 0 CONF:0 0 CONF:0 BB SIZE:5
TAG:15c3 FORMAT:3 ENTANGLED_ADDRESSES:3c764 CONF:2 3c768 CONF:2 3c766 CONF:2 0 CONF:0 0 CONF:0 0 CONF:0 BB SIZE:2
TAG:4dd FORMAT:4 ENTANGLED_ADDRESSES:1c44 CONF:3 0 CONF:0 0 CONF:0 0 CONF:0 0 CONF:0 0 CONF:0 BB SIZE:0
TAG:708 FORMAT:4 ENTANGLED_ADDRESSES:815 CONF:2 0 CONF:0 0 CONF:0 0 CONF:0 0 CONF:0 0 CONF:0 BB SIZE:c
TAG:53e FORMAT:3 ENTANGLED_ADDRESSES:5bdc CONF:3 5bf0 CONF:3 61ea CONF:3 0 CONF:0 0 CONF:0 0 CONF:0 BB SIZE:4
TAG:aa FORMAT:3 ENTANGLED_ADDRESSES:15004 CONF:3 0 CONF:0 0 CONF:0 0 CONF:0 0 CONF:0 0 CONF:0 BB SIZE:2
TAG:6b8 FORMAT:3 ENTANGLED_ADDRESSES:25444 CONF:0 88bc CONF:3 23e46 CONF:0 0 CONF:0 0 CONF:0 0 CONF:0 BB SIZE:6
TAG:422 FORMAT:3 ENTANGLED_ADDRESSES:305a CONF:3 0 CONF:0 0 CONF:0 0 CONF:0 0 CONF:0 0 CONF:0 BB SIZE:2
TAG:512 FORMAT:4 ENTANGLED_ADDRESSES:e7f CONF:3 1fc0 CONF:3 0 CONF:0 0 CONF:0 0 CONF:0 0 CONF:0 BB SIZE:3
TAG:1b21 FORMAT:2 ENTANGLED_ADDRESSES:edbfab2 CONF:2 377e CONF:0 edcb588 CONF:3 0 CONF:0 0 CONF:0 0 CONF:0 BB SIZE:1
SET:25
TAG:4f4 FORMAT:3 ENTANGLED_ADDRESSES:30a7 CONF:2 245c7 CONF:3 0 CONF:0 0 CONF:0 0 CONF:0 0 CONF:0 BB SIZE:1
TAG:67c FORMAT:6 ENTANGLED_ADDRESSES:3a CONF:3 0 CONF:0 0 CONF:0 0 CONF:0 0 CONF:0 0 CONF:0 BB SIZE:1
TAG:61b FORMAT:3 ENTANGLED_ADDRESSES:6821 CONF:3 0 CONF:0 0 CONF:0 0 CONF:0 0 CONF:0 0 CONF:0 BB SIZE:1
TAG:783 FORMAT:3 ENTANGLED_ADDRESSES:87ff CONF:3 0 CONF:0 0 CONF:0 0 CONF:0 0 CONF:0 0 CONF:0 BB SIZE:4
TAG:4e5 FORMAT:6 ENTANGLED_ADDRESSES:50 CONF:3 52 CONF:3 0 CONF:0 0 CONF:0 0 CONF:0 0 CONF:0 BB SIZE:4
TAG:6c6 FORMAT:3 ENTANGLED_ADDRESSES:5aee CONF:3 0 CONF:0 0 CONF:0 0 CONF:0 0 CONF:0 0 CONF:0 BB SIZE:1
TAG:143c FORMAT:2 ENTANGLED_ADDRESSES:ecd6c0a CONF:1 ecc145a CONF:1 0 CONF:0 0 CONF:0 0 CONF:0 0 CONF:0 BB SIZE:1
TAG:1c0 FORMAT:6 ENTANGLED_ADDRESSES:53 CONF:3 0 CONF:0 0 CONF:0 0 CONF:0 0 CONF:0 0 CONF:0 BB SIZE:4
TAG:63c FORMAT:3 ENTANGLED_ADDRESSES:6b37 CONF:3 0 CONF:0 0 CONF:0 0 CONF:0 0 CONF:0 0 CONF:0 BB SIZE:3
TAG:56e FORMAT:3 ENTANGLED_ADDRESSES:4bc4 CONF:2 4bc6 CONF:2 38f6 CONF:3 0 CONF:0 0 CONF:0 0 CONF:0 BB SIZE:1
TAG:f97 FORMAT:2 ENTANGLED_ADDRESSES:edbe54c CONF:3 edce6b1 CONF:3 0 CONF:0 0 CONF:0 0 CONF:0 0 CONF:0 BB SIZE:4
TAG:70a FORMAT:3 ENTANGLED_ADDRESSES:2c69 CONF:3 0 CONF:0 0 CONF:0 0 CONF:0 0 CONF:0 0 CONF:0 BB SIZE:2
TAG:6f FORMAT:6 ENTANGLED_ADDRESSES:78 CONF:3 81 CONF:3 91 CONF:3 0 CONF:0 0 CONF:0 0 CONF:0 BB SIZE:8
TAG:637 FORMAT:3 ENTANGLED_ADDRESSES:11db2 CONF:3 0 CONF:0 0 CONF:0 0 CONF:0 0 CONF:0 0 CONF:0 BB SIZE:3
TAG:7fc FORMAT:2 ENTANGLED_ADDRESSES:edfc789 CONF:3 0 CONF:0 0 CONF:0 0 CONF:0 0 CONF:0 0 CONF:0 BB SIZE:1
TAG:1bc FORMAT:2 ENTANGLED_ADDRESSES:e8e4a11 CONF:2 e8e49df CONF:3 0 CONF:0 0 CONF:0 0 CONF:0 0 CONF:0 BB SIZE:1
SET:26
TAG:584 FORMAT:4 ENTANGLED_ADDRESSES:5b4 CONF:3 0 CONF:0 0 CONF:0 0 CONF:0 0 CONF:0 0 CONF:0 BB SIZE:1
TAG:f43 FORMAT:3 ENTANGLED_ADDRESSES:3eb2 CONF:3 0 CONF:0 0 CONF:0 0 CONF:0 0 CONF:0 0 CONF:0 BB SIZE:1
TAG:f72 FORMAT:6 ENTANGLED_ADDRESSES:a CONF:3 0 CONF:0 0 CONF:0 0 CONF:0 0 CONF:0 0 CONF:0 BB SIZE:1
TAG:1ee FORMAT:3 ENTANGLED_ADDRESSES:1e56 CONF:3 1e5d CONF:3 1547f CONF:3 0 CONF:0 0 CONF:0 0 CONF:0 BB SIZE:0
TAG:7fc FORMAT:3 ENTANGLED_ADDRESSES:c337 CONF:3 0 CONF:0 0 CONF:0 0 CONF:0 0 CONF:0 0 CONF:0 BB SIZE:3
TAG:15c3 FORMAT:3 ENTANGLED_ADDRESSES:10d10 CONF:3 10b47 CONF:3 0 CONF:0 0 CONF:0 0 CONF:0 0 CONF:0 BB SIZE:1
TAG:15f8 FORMAT:3 ENTANGLED_ADDRESSES:bbd7 CONF:2 3891b CONF:3 0 CONF:0 0 CONF:0 0 CONF:0 0 CONF:0 BB SIZE:0
TAG:d45 FORMAT:2 ENTANGLED_ADDRESSES:edb5caa CONF:2 edfc766 CONF:3 0 CONF:0 0 CONF:0 0 CONF:0 0 CONF:0 BB SIZE:0
TAG:19e FORMAT:3 ENTANGLED_ADDRESSES:5353 CONF:3 0 CONF:0 0 CONF:0 0 CONF:0 0 CONF:0 0 CONF:0 BB SIZE:10
TAG:45f FORMAT:6 ENTANGLED_ADDRESSES:83 CONF:3 88 CONF:3 85 CONF:3 8d CONF:3 8f CONF:3 0 CONF:0 BB SIZE:1
TAG:525 FORMAT:3 ENTANGLED_ADDRESSES:f33d CONF:3 441f CONF:3 0 CONF:0 0 CONF:0 0 CONF:0 0 CONF:0 BB SIZE:b
TAG:63f FORMAT:4 ENTANGLED_ADDRESSES:13ae CONF:1 0 CONF:0 0 CONF:0 0 CONF:0 0 CONF:0 0 CONF:0 BB SIZE:1
TAG:5e7 FORMAT:3 ENTANGLED_ADDRESSES:de8c CONF:3 cba1 CONF:0 cbae CONF:0 0 CONF:0 0 CONF:0 0 CONF:0 BB SIZE:1
TAG:7d7 FORMAT:2 ENTANGLED_ADDRESSES:ecc358d CONF:1 edfc789 CONF:3 0 CONF:0 0 CONF:0 0 CONF:0 0 CONF:0 BB SIZE:2
TAG:56e FORMAT:3 ENTANGLED_ADDRESSES:f94b CONF:2 46fa CONF:0 38ad CONF:2 0 CONF:0 0 CONF:0 0 CONF:0 BB SIZE:2
TAG:591 FORMAT:6 ENTANGLED_ADDRESSES:eb CONF:0 c3 CONF:1 0 CONF:0 0 CONF:0 0 CONF:0 0 CONF:0 BB SIZE:0
SET:27
TAG:129f FORMAT:2 ENTANGLED_ADDRESSES:edbe383 CONF:3 10b33 CONF:0 edf7266 CONF:3 0 CONF:0 0 CONF:0 0 CONF:0 BB SIZE:0
TAG:590 FORMAT:3 ENTANGLED_ADDRESSES:fcf1 CONF:2 3eb2 CONF:2 0 CONF:0 0 CONF:0 0 CONF:0 0 CONF:0 BB SIZE:2
TAG:542 FORMAT:3 ENTANGLED_ADDRESSES:228c7 CONF:3 277e1 CONF:3 4338 CONF:3 0 CONF:0 0 CONF:0 0 CONF:0 BB SIZE:1
TAG:d44 FORMAT:2 ENTANGLED_ADDRESSES:edfc66b CONF:3 edb5caa CONF:2 0 CONF:0 0 CONF:0 0 CONF:0 0 CONF:0 BB SIZE:0
TAG:176c FORMAT:3 ENTANGLED_ADDRESSES:b631 CONF:3 10d11 CONF:2 b641 CONF:3 0 CONF:0 0 CONF:0 0 CONF:0 BB SIZE:1
TAG:6bb FORMAT:3 ENTANGLED_ADDRESSES:8844 CONF:3 8872 CONF:3 27766 CONF:3 0 CONF:0 0 CONF:0 0 CONF:0 BB SIZE:1
TAG:445 FORMAT:3 ENTANGLED_ADDRESSES:8f52 CONF:3 0 CONF:0 0 CONF:0 0 CONF:0 0 CONF:0 0 CONF:0 BB SIZE:3
TAG:186 FORMAT:3 ENTANGLED_ADDRESSES:f0f CONF:3 f12 CONF:3 0 CONF:0 0 CONF:0 0 CONF:0 0 CONF:0 BB SIZE:1
TAG:4bb FORMAT:6 ENTANGLED_ADDRESSES:a8 CONF:3 0 CONF:0 0 CONF:0 0 CONF:0 0 CONF:0 0 CONF:0 BB SIZE:0
TAG:6fa FORMAT:4 ENTANGLED_ADDRESSES:1725 CONF:3 0 CONF:0 0 CONF:0 0 CONF:0 0 CONF:0 0 CONF:0 BB SIZE:1
TAG:7a5 FORMAT:2 ENTANGLED_ADDRESSES:edf7755 CONF:3 edff40c CONF:3 0 CONF:0 0 CONF:0 0 CONF:0 0 CONF:0 BB SIZE:1
TAG:e49 FORMAT:2 ENTANGLED_ADDRESSES:edc504c CONF:0 ecce96a CONF:3 0 CONF:0 0 CONF:0 0 CONF:0 0 CONF:0 BB SIZE:1
TAG:6ac FORMAT:3 ENTANGLED_ADDRESSES:3905 CONF:3 0 CONF:0 0 CONF:0 0 CONF:0 0 CONF:0 0 CONF:0 BB SIZE:1
TAG:25 FORMAT:6 ENTANGLED_ADDRESSES:ab CONF:3 0 CONF:0 0 CONF:0 0 CONF:0 0 CONF:0 0 CONF:0 BB SIZE:4
TAG:426 FORMAT:3 ENTANGLED_ADDRESSES:1f9a CONF:2 e503 CONF:2 9660 CONF:2 0 CONF:0 0 CONF:0 0 CONF:0 BB SIZE:1
TAG:15f4 FORMAT:3 ENTANGLED_ADDRESSES:b5cc CONF:2 8188 CONF:2 0 CONF:0 0 CONF:0 0 CONF:0 0 CONF:0 BB SIZE:2
SET:28
TAG:56c FORMAT:3 ENTANGLED_ADDRESSES:46e1 CONF:3 20bb CONF:3 46df CONF:3 0 CONF:0 0 CONF:0 0 CONF:0 BB SIZE:1
TAG:51b FORMAT:6 ENTANGLED_ADDRESSES:9c CONF:3 0 CONF:0 0 CONF:0 0 CONF:0 0 CONF:0 0 CONF:0 BB SIZE:2
TAG:6b5 FORMAT:3 ENTANGLED_ADDRESSES:f0c CONF:3 f72e CONF:3 0 CONF:0 0 CONF:0 0 CONF:0 0 CONF:0 BB SIZE:5
TAG:48e FORMAT:1 ENTANGLED_ADDRESSES:0 CONF:0 0 CONF:0 0 CONF:0 0 CONF:0 0 CONF:0 0 CONF:0 BB SIZE:2
TAG:4d1 FORMAT:5 ENTANGLED_ADDRESSES:278 CONF:3 0 CONF:0 0 CONF:0 0 CONF:0 0 CONF:0 0 CONF:0 BB SIZE:4
TAG:5b4 FORMAT:3 ENTANGLED_ADDRESSES:9386 CONF:0 8bf0 CONF:1 8bf4 CONF:1 0 CONF:0 0 CONF:0 0 CONF:0 BB SIZE:4
TAG:69e FORMAT:6 ENTANGLED_ADDRESSES:91 CONF:3 0 CONF:0 0 CONF:0 0 CONF:0 0 CONF:0 0 CONF:0 BB SIZE:a
TAG:1b25 FORMAT:3 ENTANGLED_ADDRESSES:bbdd CONF:3 3c73d CONF:0 bc0c CONF:1 0 CONF:0 0 CONF:0 0 CONF:0 BB SIZE:1
TAG:4f4 FORMAT:3 ENTANGLED_ADDRESSES:2545f CONF:2 25827 CONF:0 30b1 CONF:2 0 CONF:0 0 CONF:0 0 CONF:0 BB SIZE:3
TAG:568 FORMAT:3 ENTANGLED_ADDRESSES:4bbb CONF:0 277e1 CONF:3 4bc7 CONF:0 0 CONF:0 0 CONF:0 0 CONF:0 BB SIZE:3
TAG:6b7 FORMAT:3 ENTANGLED_ADDRESSES:146b0 CONF:3 a6c2 CONF:3 0 CONF:0 0 CONF:0 0 CONF:0 0 CONF:0 BB SIZE:3
TAG:153 FORMAT:3 ENTANGLED_ADDRESSES:92a1 CONF:3 0 CONF:0 0 CONF:0 0 CONF:0 0 CONF:0 0 CONF:0 BB SIZE:b
TAG:f4b FORMAT:4 ENTANGLED_ADDRESSES:1969 CONF:3 1514 CONF:3 1556 CONF:3 0 CONF:0 0 CONF:0 0 CONF:0 BB SIZE:0
TAG:6b2 FORMAT:3 ENTANGLED_ADDRESSES:16a17 CONF:3 0 CONF:0 0 CONF:0 0 CONF:0 0 CONF:0 0 CONF:0 BB SIZE:a
TAG:74a FORMAT:4 ENTANGLED_ADDRESSES:f58 CONF:3 0 CONF:0 0 CONF:0 0 CONF:0 0 CONF:0 0 CONF:0 BB SIZE:6
TAG:167 FORMAT:6 ENTANGLED_ADDRESSES:ab CONF:3 0 CONF:0 0 CONF:0 0 CONF:0 0 CONF:0 0 CONF:0 BB SIZE:3
SET:29
TAG:4a6 FORMAT:1 ENTANGLED_ADDRESSES:3fffedcb621 CONF:2 f7c9 CONF:0 21f1 CONF:0 0 CONF:0 0 CONF:0 0 CONF:0 BB SIZE:5
TAG:4cb FORMAT:6 ENTANGLED_ADDRESSES:37 CONF:3 0 CONF:0 0 CONF:0 0 CONF:0 0 CONF:0 0 CONF:0 BB SIZE:2
TAG:74a FORMAT:3 ENTANGLED_ADDRESSES:14c4a CONF:3 f48 CONF:3 edb CONF:3 0 CONF:0 0 CONF:0 0 CONF:0 BB SIZE:f
TAG:6a6 FORMAT:2 ENTANGLED_ADDRESSES:eccb765 CONF:0 ecc80a6 CONF:2 0 CONF:0 0 CONF:0 0 CONF:0 0 CONF:0 BB SIZE:1
TAG:788 FORMAT:1 ENTANGLED_ADDRESSES:0 CONF:0 0 CONF:0 0 CONF:0 0 CONF:0 0 CONF:0 0 CONF:0 BB SIZE:10
TAG:7dc FORMAT:4 ENTANGLED_ADDRESSES:1754 CONF:3 1780 CONF:3 0 CONF:0 0 CONF:0 0 CONF:0 0 CONF:0 BB SIZE:3
TAG:f4b FORMAT:4 ENTANGLED_ADDRESSES:1894 CONF:3 0 CONF:0 0 CONF:0 0 CONF:0 0 CONF:0 0 CONF:0 BB SIZE:1
TAG:690 FORMAT:3 ENTANGLED_ADDRESSES:be43 CONF:3 15470 CONF:2 0 CONF:0 0 CONF:0 0 CONF:0 0 CONF:0 BB SIZE:5
TAG:627 FORMAT:3 ENTANGLED_ADDRESSES:26c2 CONF:3 0 CONF:0 0 CONF:0 0 CONF:0 0 CONF:0 0 CONF:0 BB SIZE:6
TAG:7ff FORMAT:2 ENTANGLED_ADDRESSES:edcba33 CONF:3 eccc352 CONF:2 0 CONF:0 0 CONF:0 0 CONF:0 0 CONF:0 BB SIZE:0
TAG:591 FORMAT:3 ENTANGLED_ADDRESSES:3ea5 CONF:2 8869 CONF:2 0 CONF:0 0 CONF:0 0 CONF:0 0 CONF:0 BB SIZE:1
TAG:6bb FORMAT:3 ENTANGLED_ADDRESSES:277c9 CONF:3 46e8 CONF:3 20b4 CONF:3 0 CONF:0 0 CONF:0 0 CONF:0 BB SIZE:0
TAG:7fc FORMAT:2 ENTANGLED_ADDRESSES:edce101 CONF:2 0 CONF:0 0 CONF:0 0 CONF:0 0 CONF:0 0 CONF:0 BB SIZE:2
TAG:6fc FORMAT:3 ENTANGLED_ADDRESSES:c33b CONF:3 0 CONF:0 0 CONF:0 0 CONF:0 0 CONF:0 0 CONF:0 BB SIZE:2
TAG:50b FORMAT:3 ENTANGLED_ADDRESSES:c131 CONF:3 0 CONF:0 0 CONF:0 0 CONF:0 0 CONF:0 0 CONF:0 BB SIZE:0
TAG:15f8 FORMAT:4 ENTANGLED_ADDRESSES:1bd7 CONF:3 0 CONF:0 0 CONF:0 0 CONF:0 0 CONF:0 0 CONF:0 BB SIZE:1
SET:30
TAG:f43 FORMAT:5 ENTANGLED_ADDRESSES:22d CONF:3 230 CONF:3 233 CONF:3 232 CONF:3 383 CONF:3 0 CONF:0 BB SIZE:1
TAG:760 FORMAT:3 ENTANGLED_ADDRESSES:de8c CONF:2 1fa8 CONF:3 86fc CONF:1 0 CONF:0 0 CONF:0 0 CONF:0 BB SIZE:1
TAG:564 FORMAT:3 ENTANGLED_ADDRESSES:4e93 CONF:2 f5db CONF:3 0 CONF:0 0 CONF:0 0 CONF:0 0 CONF:0 BB SIZE:1
TAG:f09 FORMAT:6 ENTANGLED_ADDRESSES:2c CONF:3 0 CONF:0 0 CONF:0 0 CONF:0 0 CONF:0 0 CONF:0 BB SIZE:1
TAG:75d FORMAT:3 ENTANGLED_ADDRESSES:e80a CONF:3 e80e CONF:3 0 CONF:0 0 CONF:0 0 CONF:0 0 CONF:0 BB SIZE:1
TAG:496 FORMAT:3 ENTANGLED_ADDRESSES:1690f CONF:3 0 CONF:0 0 CONF:0 0 CONF:0 0 CONF:0 0 CONF:0 BB SIZE:9
TAG:56e FORMAT:6 ENTANGLED_ADDRESSES:41 CONF:3 1f CONF:3 20 CONF:3 0 CONF:0 0 CONF:0 0 CONF:0 BB SIZE:1
TAG:69e FORMAT:3 ENTANGLED_ADDRESSES:a94f CONF:3 ffb2 CONF:3 eac CONF:3 0 CONF:0 0 CONF:0 0 CONF:0 BB SIZE:5
TAG:59b FORMAT:3 ENTANGLED_ADDRESSES:734 CONF:3 42b3 CONF:3 0 CONF:0 0 CONF:0 0 CONF:0 0 CONF:0 BB SIZE:3
TAG:736 FORMAT:3 ENTANGLED_ADDRESSES:77b8 CONF:0 fd01 CONF:1 2776a CONF:1 0 CONF:0 0 CONF:0 0 CONF:0 BB SIZE:0
TAG:4d7 FORMAT:3 ENTANGLED_ADDRESSES:3aa8 CONF:2 3d3e CONF:3 f9db CONF:3 1d3e CONF:0 0 CONF:0 0 CONF:0 BB SIZE:1
TAG:591 FORMAT:3 ENTANGLED_ADDRESSES:f7e8 CONF:3 f7ea CONF:3 f7f0 CONF:2 0 CONF:0 0 CONF:0 0 CONF:0 BB SIZE:0
TAG:75f FORMAT:3 ENTANGLED_ADDRESSES:1cbb CONF:3 0 CONF:0 0 CONF:0 0 CONF:0 0 CONF:0 0 CONF:0 BB SIZE:0
TAG:494 FORMAT:3 ENTANGLED_ADDRESSES:fc79 CONF:3 0 CONF:0 0 CONF:0 0 CONF:0 0 CONF:0 0 CONF:0 BB SIZE:e
TAG:6ac FORMAT:3 ENTANGLED_ADDRESSES:a94f CONF:3 0 CONF:0 0 CONF:0 0 CONF:0 0 CONF:0 0 CONF:0 BB SIZE:5
TAG:fe2 FORMAT:3 ENTANGLED_ADDRESSES:25593 CONF:3 25596 CONF:3 25599 CONF:3 0 CONF:0 0 CONF:0 0 CONF:0 BB SIZE:1
SET:31
TAG:67f FORMAT:6 ENTANGLED_ADDRESSES:8b CONF:2 0 CONF:0 0 CONF:0 0 CONF:0 0 CONF:0 0 CONF:0 BB SIZE:5
TAG:7fc FORMAT:2 ENTANGLED_ADDRESSES:edfc827 CONF:3 e8e4a08 CONF:3 0 CONF:0 0 CONF:0 0 CONF:0 0 CONF:0 BB SIZE:1
TAG:554 FORMAT:6 ENTANGLED_ADDRESSES:8d CONF:2 c6 CONF:3 0 CONF:0 0 CONF:0 0 CONF:0 0 CONF:0 BB SIZE:0
TAG:f1f FORMAT:6 ENTANGLED_ADDRESSES:ce CONF:2 d4 CONF:2 0 CONF:0 0 CONF:0 0 CONF:0 0 CONF:0 BB SIZE:0
TAG:f16 FORMAT:5 ENTANGLED_ADDRESSES:21b CONF:3 204 CONF:3 201 CONF:3 1f1 CONF:3 205 CONF:3 0 CONF:0 BB SIZE:2
TAG:f76 FORMAT:6 ENTANGLED_ADDRESSES:15 CONF:2 0 CONF:0 0 CONF:0 0 CONF:0 0 CONF:0 0 CONF:0 BB SIZE:3
TAG:6bb FORMAT:3 ENTANGLED_ADDRESSES:277c5 CONF:1 46e8 CONF:1 277c9 CONF:2 0 CONF:0 0 CONF:0 0 CONF:0 BB SIZE:2
TAG:4f4 FORMAT:3 ENTANGLED_ADDRESSES:f9b1 CONF:3 f9ac CONF:3 0 CONF:0 0 CONF:0 0 CONF:0 0 CONF:0 BB SIZE:1
TAG:5b4 FORMAT:3 ENTANGLED_ADDRESSES:4be1 CONF:3 cb12 CONF:0 8be8 CONF:1 0 CONF:0 0 CONF:0 0 CONF:0 BB SIZE:1
TAG:56c FORMAT:6 ENTANGLED_ADDRESSES:3b CONF:1 b7 CONF:3 0 CONF:0 0 CONF:0 0 CONF:0 0 CONF:0 BB SIZE:0
TAG:f42 FORMAT:4 ENTANGLED_ADDRESSES:187c CONF:3 1866 CONF:3 1808 CONF:3 183b CONF:3 0 CONF:0 0 CONF:0 BB SIZE:1
TAG:67d FORMAT:6 ENTANGLED_ADDRESSES:ae CONF:3 0 CONF:0 0 CONF:0 0 CONF:0 0 CONF:0 0 CONF:0 BB SIZE:0
TAG:652 FORMAT:3 ENTANGLED_ADDRESSES:c211 CONF:3 15c4a CONF:3 0 CONF:0 0 CONF:0 0 CONF:0 0 CONF:0 BB SIZE:2
TAG:15f5 FORMAT:6 ENTANGLED_ADDRESSES:8c CONF:2 90 CONF:3 85 CONF:0 0 CONF:0 0 CONF:0 0 CONF:0 BB SIZE:2
TAG:44a FORMAT:1 ENTANGLED_ADDRESSES:0 CONF:0 0 CONF:0 0 CONF:0 0 CONF:0 0 CONF:0 0 CONF:0 BB SIZE:1
TAG:591 FORMAT:3 ENTANGLED_ADDRESSES:2776a CONF:2 3eb2 CONF:2 277e2 CONF:3 0 CONF:0 0 CONF:0 0 CONF:0 BB SIZE:1
SET:32
TAG:56c FORMAT:3 ENTANGLED_ADDRESSES:27706 CONF:3 21f1 CONF:3 46ea CONF:2 0 CONF:0 0 CONF:0 0 CONF:0 BB SIZE:2
TAG:788 FORMAT:3 ENTANGLED_ADDRESSES:76ff CONF:3 76fc CONF:3 0 CONF:0 0 CONF:0 0 CONF:0 0 CONF:0 BB SIZE:1
TAG:565 FORMAT:2 ENTANGLED_ADDRESSES:edbfab0 CONF:2 edce107 CONF:1 0 CONF:0 0 CONF:0 0 CONF:0 0 CONF:0 BB SIZE:0
TAG:4c2 FORMAT:3 ENTANGLED_ADDRESSES:4ab8 CONF:3 0 CONF:0 0 CONF:0 0 CONF:0 0 CONF:0 0 CONF:0 BB SIZE:0
TAG:f43 FORMAT:4 ENTANGLED_ADDRESSES:1912 CONF:3 1639 CONF:1 1638 CONF:2 1601 CONF:2 0 CONF:0 0 CONF:0 BB SIZE:1
TAG:f5e FORMAT:6 ENTANGLED_ADDRESSES:53 CONF:2 51 CONF:2 50 CONF:2 3a CONF:3 0 CONF:0 0 CONF:0 BB SIZE:9
TAG:7a1 FORMAT:4 ENTANGLED_ADDRESSES:13e3 CONF:3 0 CONF:0 0 CONF:0 0 CONF:0 0 CONF:0 0 CONF:0 BB SIZE:6
TAG:4fb FORMAT:2 ENTANGLED_ADDRESSES:edd0b34 CONF:3 edd0d10 CONF:3 0 CONF:0 0 CONF:0 0 CONF:0 0 CONF:0 BB SIZE:2
TAG:4a6 FORMAT:1 ENTANGLED_ADDRESSES:3fffedfc6bc CONF:3 0 CONF:0 0 CONF:0 0 CONF:0 0 CONF:0 0 CONF:0 BB SIZE:2
TAG:cc FORMAT:6 ENTANGLED_ADDRESSES:cd CONF:2 0 CONF:0 0 CONF:0 0 CONF:0 0 CONF:0 0 CONF:0 BB SIZE:1
TAG:5ea FORMAT:3 ENTANGLED_ADDRESSES:5be0 CONF:2 5bde CONF:2 0 CONF:0 0 CONF:0 0 CONF:0 0 CONF:0 BB SIZE:1
TAG:736 FORMAT:3 ENTANGLED_ADDRESSES:2555a CONF:3 25545 CONF:3 fc78 CONF:3 0 CONF:0 0 CONF:0 0 CONF:0 BB SIZE:2
TAG:4d6 FORMAT:3 ENTANGLED_ADDRESSES:ecab CONF:3 ecb2 CONF:3 ecad CONF:3 0 CONF:0 0 CONF:0 0 CONF:0 BB SIZE:5
TAG:45c FORMAT:4 ENTANGLED_ADDRESSES:b10 CONF:3 0 CONF:0 0 CONF:0 0 CONF:0 0 CONF:0 0 CONF:0 BB SIZE:0
TAG:466 FORMAT:3 ENTANGLED_ADDRESSES:101ef CONF:2 a376 CONF:2 0 CONF:0 0 CONF:0 0 CONF:0 0 CONF:0 BB SIZE:1
TAG:f5b FORMAT:4 ENTANGLED_ADDRESSES:126b CONF:2 153d CONF:3 1514 CONF:3 1969 CONF:3 0 CONF:0 0 CONF:0 BB SIZE:1
SET:33
TAG:1a62 FORMAT:2 ENTANGLED_ADDRESSES:e8e49be CONF:3 edf8901 CONF:3 0 CONF:0 0 CONF:0 0 CONF:0 0 CONF:0 BB SIZE:0
TAG:5b3 FORMAT:5 ENTANGLED_ADDRESSES:2df CONF:3 2db CONF:3 0 CONF:0 0 CONF:0 0 CONF:0 0 CONF:0 BB SIZE:0
TAG:701 FORMAT:3 ENTANGLED_ADDRESSES:3b7c CONF:2 3b81 CONF:2 4a87 CONF:0 0 CONF:0 0 CONF:0 0 CONF:0 BB SIZE:0
TAG:52c FORMAT:3 ENTANGLED_ADDRESSES:a958 CONF:1 3971 CONF:3 877c CONF:3 0 CONF:0 0 CONF:0 0 CONF:0 BB SIZE:4
TAG:186 FORMAT:1 ENTANGLED_ADDRESSES:0 CONF:0 0 CONF:0 0 CONF:0 0 CONF:0 0 CONF:0 0 CONF:0 BB SIZE:2
TAG:659 FORMAT:3 ENTANGLED_ADDRESSES:1c94 CONF:3 1c9b CONF:3 e872 CONF:3 0 CONF:0 0 CONF:0 0 CONF:0 BB SIZE:1
TAG:173f FORMAT:3 ENTANGLED_ADDRESSES:de6f CONF:3 de72 CONF:3 de73 CONF:3 0 CONF:0 0 CONF:0 0 CONF:0 BB SIZE:1
TAG:f4c FORMAT:3 ENTANGLED_ADDRESSES:23f71 CONF:3 254ad CONF:3 25467 CONF:3 0 CONF:0 0 CONF:0 0 CONF:0 BB SIZE:0
TAG:1b24 FORMAT:1 ENTANGLED_ADDRESSES:3fffc00002020bb CONF:3 0 CONF:0 0 CONF:0 0 CONF:0 0 CONF:0 0 CONF:0 BB SIZE:3
TAG:1bc FORMAT:3 ENTANGLED_ADDRESSES:151ec CONF:2 151e6 CONF:2 f6ef CONF:3 0 CONF:0 0 CONF:0 0 CONF:0 BB SIZE:b
TAG:f0b FORMAT:3 ENTANGLED_ADDRESSES:7063 CONF:3 240cf CONF:3 709b CONF:3 0 CONF:0 0 CONF:0 0 CONF:0 BB SIZE:1
TAG:f72 FORMAT:6 ENTANGLED_ADDRESSES:4a CONF:3 0 CONF:0 0 CONF:0 0 CONF:0 0 CONF:0 0 CONF:0 BB SIZE:1
TAG:58d FORMAT:4 ENTANGLED_ADDRESSES:1f00 CONF:1 17a7 CONF:3 0 CONF:0 0 CONF:0 0 CONF:0 0 CONF:0 BB SIZE:1
TAG:15db FORMAT:3 ENTANGLED_ADDRESSES:3c6bb CONF:2 3c753 CONF:2 3c7fb CONF:3 0 CONF:0 0 CONF:0 0 CONF:0 BB SIZE:1
TAG:41f FORMAT:3 ENTANGLED_ADDRESSES:de07 CONF:3 0 CONF:0 0 CONF:0 0 CONF:0 0 CONF:0 0 CONF:0 BB SIZE:4
TAG:444 FORMAT:3 ENTANGLED_ADDRESSES:41ce CONF:3 68ea CONF:3 0 CONF:0 0 CONF:0 0 CONF:0 0 CONF:0 BB SIZE:1
SET:34
TAG:58c FORMAT:3 ENTANGLED_ADDRESSES:228c6 CONF:3 e9f7 CONF:3 77b3 CONF:3 0 CONF:0 0 CONF:0 0 CONF:0 BB SIZE:1
TAG:7e8 FORMAT:3 ENTANGLED_ADDRESSES:ef9 CONF:3 0 CONF:0 0 CONF:0 0 CONF:0 0 CONF:0 0 CONF:0 BB SIZE:b
TAG:14f FORMAT:3 ENTANGLED_ADDRESSES:160da CONF:3 160e0 CONF:3 b4ee CONF:3 0 CONF:0 0 CONF:0 0 CONF:0 BB SIZE:1
TAG:c7 FORMAT:3 ENTANGLED_ADDRESSES:18f21 CONF:3 18f34 CONF:3 0 CONF:0 0 CONF:0 0 CONF:0 0 CONF:0 BB SIZE:5
TAG:186 FORMAT:3 ENTANGLED_ADDRESSES:b58f CONF:3 b589 CONF:3 0 CONF:0 0 CONF:0 0 CONF:0 0 CONF:0 BB SIZE:3
TAG:7d0 FORMAT:2 ENTANGLED_ADDRESSES:ecd6222 CONF:2 edcba33 CONF:3 0 CONF:0 0 CONF:0 0 CONF:0 0 CONF:0 BB SIZE:2
TAG:428 FORMAT:6 ENTANGLED_ADDRESSES:c2 CONF:3 0 CONF:0 0 CONF:0 0 CONF:0 0 CONF:0 0 CONF:0 BB SIZE:4
TAG:75f FORMAT:3 ENTANGLED_ADDRESSES:f040 CONF:3 0 CONF:0 0 CONF:0 0 CONF:0 0 CONF:0 0 CONF:0 BB SIZE:0
TAG:6bf FORMAT:3 ENTANGLED_ADDRESSES:3bc8 CONF:3 0 CONF:0 0 CONF:0 0 CONF:0 0 CONF:0 0 CONF:0 BB SIZE:7
TAG:f18 FORMAT:6 ENTANGLED_ADDRESSES:d4 CONF:3 d3 CONF:3 d0 CONF:3 0 CONF:0 0 CONF:0 0 CONF:0 BB SIZE:1
TAG:456 FORMAT:3 ENTANGLED_ADDRESSES:a94f CONF:3 0 CONF:0 0 CONF:0 0 CONF:0 0 CONF:0 0 CONF:0 BB SIZE:5
TAG:1a62 FORMAT:1 ENTANGLED_ADDRESSES:3fffc0000207f00 CONF:3 0 CONF:0 0 CONF:0 0 CONF:0 0 CONF:0 0 CONF:0 BB SIZE:1
TAG:f67 FORMAT:4 ENTANGLED_ADDRESSES:1a20 CONF:3 1a2c CONF:3 1a27 CONF:3 0 CONF:0 0 CONF:0 0 CONF:0 BB SIZE:1
TAG:4df FORMAT:3 ENTANGLED_ADDRESSES:21f4 CONF:3 4b04 CONF:2 46ee CONF:2 0 CONF:0 0 CONF:0 0 CONF:0 BB SIZE:3
TAG:4d4 FORMAT:4 ENTANGLED_ADDRESSES:1c4b CONF:3 0 CONF:0 0 CONF:0 0 CONF:0 0 CONF:0 0 CONF:0 BB SIZE:0
TAG:f16 FORMAT:3 ENTANGLED_ADDRESSES:f7c9 CONF:3 0 CONF:0 0 CONF:0 0 CONF:0 0 CONF:0 0 CONF:0 BB SIZE:2
SET:35
TAG:555 FORMAT:3 ENTANGLED_ADDRESSES:f9e5 CONF:3 f9d8 CONF:3 f9f6 CONF:3 0 CONF:0 0 CONF:0 0 CONF:0 BB SIZE:1
TAG:481 FORMAT:4 ENTANGLED_ADDRESSES:1cc7 CONF:3 0 CONF:0 0 CONF:0 0 CONF:0 0 CONF:0 0 CONF:0 BB SIZE:2
TAG:14f FORMAT:4 ENTANGLED_ADDRESSES:1380 CONF:3 0 CONF:0 0 CONF:0 0 CONF:0 0 CONF:0 0 CONF:0 BB SIZE:1
TAG:16f FORMAT:6 ENTANGLED_ADDRESSES:4f CONF:3 40 CONF:3 0 CONF:0 0 CONF:0 0 CONF:0 0 CONF:0 BB SIZE:3
TAG:591 FORMAT:3 ENTANGLED_ADDRESSES:3eb2 CONF:3 3ea5 CONF:3 8869 CONF:3 0 CONF:0 0 CONF:0 0 CONF:0 BB SIZE:0
TAG:69b FORMAT:3 ENTANGLED_ADDRESSES:14842 CONF:3 ac8d CONF:3 0 CONF:0 0 CONF:0 0 CONF:0 0 CONF:0 BB SIZE:9
TAG:187 FORMAT:1 ENTANGLED_ADDRESSES:0 CONF:0 0 CONF:0 0 CONF:0 0 CONF:0 0 CONF:0 0 CONF:0 BB SIZE:5
TAG:4d8 FORMAT:3 ENTANGLED_ADDRESSES:1fa2 CONF:3 0 CONF:0 0 CONF:0 0 CONF:0 0 CONF:0 0 CONF:0 BB SIZE:3
TAG:f68 FORMAT:3 ENTANGLED_ADDRESSES:25533 CONF:2 277ea CONF:3 0 CONF:0 0 CONF:0 0 CONF:0 0 CONF:0 BB SIZE:2
TAG:fe6 FORMAT:3 ENTANGLED_ADDRESSES:277e1 CONF:3 459c CONF:3 88b8 CONF:0 0 CONF:0 0 CONF:0 0 CONF:0 BB SIZE:0
TAG:f51 FORMAT:4 ENTANGLED_ADDRESSES:618 CONF:3 607 CONF:3 5ff CONF:3 0 CONF:0 0 CONF:0 0 CONF:0 BB SIZE:1
TAG:f1d FORMAT:3 ENTANGLED_ADDRESSES:24457 CONF:2 24624 CONF:3 30bc CONF:2 0 CONF:0 0 CONF:0 0 CONF:0 BB SIZE:2
TAG:f1a FORMAT:3 ENTANGLED_ADDRESSES:24603 CONF:1 2460c CONF:1 23fc5 CONF:3 0 CONF:0 0 CONF:0 0 CONF:0 BB SIZE:1
TAG:5b5 FORMAT:3 ENTANGLED_ADDRESSES:5d26 CONF:3 0 CONF:0 0 CONF:0 0 CONF:0 0 CONF:0 0 CONF:0 BB SIZE:5
TAG:173f FORMAT:2 ENTANGLED_ADDRESSES:edb7d84 CONF:3 edbe52e CONF:3 0 CONF:0 0 CONF:0 0 CONF:0 0 CONF:0 BB SIZE:1
TAG:71 FORMAT:2 ENTANGLED_ADDRESSES:edf7755 CONF:1 ecc4407 CONF:3 0 CONF:0 0 CONF:0 0 CONF:0 0 CONF:0 BB SIZE:7
SET:36
TAG:44a FORMAT:3 ENTANGLED_ADDRESSES:6b33 CONF:3 3dbc CONF:3 0 CONF:0 0 CONF:0 0 CONF:0 0 CONF:0 BB SIZE:2
TAG:15f9 FORMAT:3 ENTANGLED_ADDRESSES:b639 CONF:2 b618 CONF:0 377e CONF:1 0 CONF:0 0 CONF:0 0 CONF:0 BB SIZE:0
TAG:701 FORMAT:3 ENTANGLED_ADDRESSES:3b13 CONF:2 f7c6 CONF:2 3b22 CONF:2 19dd CONF:0 0 CONF:0 0 CONF:0 BB SIZE:1
TAG:7b3 FORMAT:3 ENTANGLED_ADDRESSES:10a07 CONF:3 c1b9 CONF:3 7f66 CONF:3 0 CONF:0 0 CONF:0 0 CONF:0 BB SIZE:1
TAG:555 FORMAT:3 ENTANGLED_ADDRESSES:38f6 CONF:2 3902 CONF:3 0 CONF:0 0 CONF:0 0 CONF:0 0 CONF:0 BB SIZE:0
TAG:1b4 FORMAT:3 ENTANGLED_ADDRESSES:6d9b CONF:1 0 CONF:0 0 CONF:0 0 CONF:0 0 CONF:0 0 CONF:0 BB SIZE:4
TAG:1a62 FORMAT:1 ENTANGLED_ADDRESSES:3fffc00002088bb CONF:2 0 CONF:0 0 CONF:0 0 CONF:0 0 CONF:0 0 CONF:0 BB SIZE:3
TAG:6b3 FORMAT:2 ENTANGLED_ADDRESSES:e8e4a11 CONF:2 e8e49df CONF:2 0 CONF:0 0 CONF:0 0 CONF:0 0 CONF:0 BB SIZE:2
TAG:419 FORMAT:3 ENTANGLED_ADDRESSES:f95b CONF:3 3b0a CONF:3 a057 CONF:3 0 CONF:0 0 CONF:0 0 CONF:0 BB SIZE:8
TAG:5be FORMAT:3 ENTANGLED_ADDRESSES:256ef CONF:3 0 CONF:0 0 CONF:0 0 CONF:0 0 CONF:0 0 CONF:0 BB SIZE:0
TAG:7ae FORMAT:6 ENTANGLED_ADDRESSES:54 CONF:3 0 CONF:0 0 CONF:0 0 CONF:0 0 CONF:0 0 CONF:0 BB SIZE:6
TAG:56e FORMAT:3 ENTANGLED_ADDRESSES:f94d CONF:3 0 CONF:0 0 CONF:0 0 CONF:0 0 CONF:0 0 CONF:0 BB SIZE:0
TAG:c2 FORMAT:3 ENTANGLED_ADDRESSES:3993 CONF:3 0 CONF:0 0 CONF:0 0 CONF:0 0 CONF:0 0 CONF:0 BB SIZE:1
TAG:708 FORMAT:3 ENTANGLED_ADDRESSES:96d2 CONF:3 8806 CONF:3 1272b CONF:3 0 CONF:0 0 CONF:0 0 CONF:0 BB SIZE:8
TAG:739 FORMAT:3 ENTANGLED_ADDRESSES:35e5 CONF:3 0 CONF:0 0 CONF:0 0 CONF:0 0 CONF:0 0 CONF:0 BB SIZE:0
TAG:657 FORMAT:3 ENTANGLED_ADDRESSES:e01a CONF:3 1533 CONF:3 0 CONF:0 0 CONF:0 0 CONF:0 0 CONF:0 BB SIZE:1
SET:37
TAG:1286 FORMAT:3 ENTANGLED_ADDRESSES:37269 CONF:3 10d13 CONF:0 bbf7 CONF:3 0 CONF:0 0 CONF:0 0 CONF:0 BB SIZE:1
TAG:757 FORMAT:4 ENTANGLED_ADDRESSES:145a CONF:3 1a59 CONF:3 0 CONF:0 0 CONF:0 0 CONF:0 0 CONF:0 BB SIZE:5
TAG:1b24 FORMAT:3 ENTANGLED_ADDRESSES:b587 CONF:2 3c6bc CONF:1 b581 CONF:2 0 CONF:0 0 CONF:0 0 CONF:0 BB SIZE:0
TAG:4d1 FORMAT:5 ENTANGLED_ADDRESSES:2bb CONF:1 2a2 CONF:3 0 CONF:0 0 CONF:0 0 CONF:0 0 CONF:0 BB SIZE:1
TAG:15db FORMAT:4 ENTANGLED_ADDRESSES:1bfd CONF:2 1c09 CONF:3 1bff CONF:3 0 CONF:0 0 CONF:0 0 CONF:0 BB SIZE:3
TAG:678 FORMAT:3 ENTANGLED_ADDRESSES:f5db CONF:2 0 CONF:0 0 CONF:0 0 CONF:0 0 CONF:0 0 CONF:0 BB SIZE:1
TAG:481 FORMAT:3 ENTANGLED_ADDRESSES:c0ed CONF:3 0 CONF:0 0 CONF:0 0 CONF:0 0 CONF:0 0 CONF:0 BB SIZE:2
TAG:708 FORMAT:3 ENTANGLED_ADDRESSES:592b CONF:3 96ee CONF:3 ec38 CONF:3 0 CONF:0 0 CONF:0 0 CONF:0 BB SIZE:2
TAG:56d FORMAT:6 ENTANGLED_ADDRESSES:cb CONF:3 0 CONF:0 0 CONF:0 0 CONF:0 0 CONF:0 0 CONF:0 BB SIZE:1
TAG:760 FORMAT:6 ENTANGLED_ADDRESSES:7e CONF:3 0 CONF:0 0 CONF:0 0 CONF:0 0 CONF:0 0 CONF:0 BB SIZE:5
TAG:4d8 FORMAT:6 ENTANGLED_ADDRESSES:78 CONF:3 0 CONF:0 0 CONF:0 0 CONF:0 0 CONF:0 0 CONF:0 BB SIZE:7
TAG:6a8 FORMAT:3 ENTANGLED_ADDRESSES:3329 CONF:2 b581 CONF:3 0 CONF:0 0 CONF:0 0 CONF:0 0 CONF:0 BB SIZE:1
TAG:71 FORMAT:6 ENTANGLED_ADDRESSES:72 CONF:3 0 CONF:0 0 CONF:0 0 CONF:0 0 CONF:0 0 CONF:0 BB SIZE:2
TAG:637 FORMAT:6 ENTANGLED_ADDRESSES:33 CONF:3 34 CONF:3 0 CONF:0 0 CONF:0 0 CONF:0 0 CONF:0 BB SIZE:4
TAG:674 FORMAT:4 ENTANGLED_ADDRESSES:33e CONF:3 32e CONF:3 32f CONF:3 0 CONF:0 0 CONF:0 0 CONF:0 BB SIZE:b
TAG:d45 FORMAT:2 ENTANGLED_ADDRESSES:edcba33 CONF:3 0 CONF:0 0 CONF:0 0 CONF:0 0 CONF:0 0 CONF:0 BB SIZE:0
SET:38
TAG:2c FORMAT:3 ENTANGLED_ADDRESSES:a954 CONF:3 0 CONF:0 0 CONF:0 0 CONF:0 0 CONF:0 0 CONF:0 BB SIZE:1
TAG:d45 FORMAT:2 ENTANGLED_ADDRESSES:edfc753 CONF:3 0 CONF:0 0 CONF:0 0 CONF:0 0 CONF:0 0 CONF:0 BB SIZE:0
TAG:7fc FORMAT:2 ENTANGLED_ADDRESSES:edff413 CONF:3 0 CONF:0 0 CONF:0 0 CONF:0 0 CONF:0 0 CONF:0 BB SIZE:1
TAG:72f FORMAT:3 ENTANGLED_ADDRESSES:d53e CONF:3 0 CONF:0 0 CONF:0 0 CONF:0 0 CONF:0 0 CONF:0 BB SIZE:1
TAG:471 FORMAT:3 ENTANGLED_ADDRESSES:1a33 CONF:3 0 CONF:0 0 CONF:0 0 CONF:0 0 CONF:0 0 CONF:0 BB SIZE:14
TAG:173f FORMAT:2 ENTANGLED_ADDRESSES:edc271f CONF:2 edbc8f1 CONF:3 0 CONF:0 0 CONF:0 0 CONF:0 0 CONF:0 BB SIZE:2
TAG:52a FORMAT:3 ENTANGLED_ADDRESSES:e00a CONF:3 5f9d CONF:3 620c CONF:3 0 CONF:0 0 CONF:0 0 CONF:0 BB SIZE:3
TAG:1690 FORMAT:2 ENTANGLED_ADDRESSES:edd0d63 CONF:3 edba6da CONF:3 0 CONF:0 0 CONF:0 0 CONF:0 0 CONF:0 BB SIZE:2
TAG:16f FORMAT:3 ENTANGLED_ADDRESSES:b4e6 CONF:3 0 CONF:0 0 CONF:0 0 CONF:0 0 CONF:0 0 CONF:0 BB SIZE:2
TAG:5a7 FORMAT:3 ENTANGLED_ADDRESSES:77ba CONF:2 871c CONF:2 870a CONF:2 0 CONF:0 0 CONF:0 0 CONF:0 BB SIZE:1
TAG:43b FORMAT:3 ENTANGLED_ADDRESSES:17375 CONF:3 0 CONF:0 0 CONF:0 0 CONF:0 0 CONF:0 0 CONF:0 BB SIZE:4
TAG:4d0 FORMAT:6 ENTANGLED_ADDRESSES:41 CONF:0 47 CONF:0 3e CONF:2 35 CONF:1 26 CONF:2 d CONF:3 BB SIZE:3
TAG:6bf FORMAT:1 ENTANGLED_ADDRESSES:0 CONF:0 0 CONF:0 0 CONF:0 0 CONF:0 0 CONF:0 0 CONF:0 BB SIZE:3
TAG:65c FORMAT:2 ENTANGLED_ADDRESSES:edb5ca9 CONF:3 0 CONF:0 0 CONF:0 0 CONF:0 0 CONF:0 0 CONF:0 BB SIZE:2
TAG:555 FORMAT:4 ENTANGLED_ADDRESSES:b21 CONF:2 6f5 CONF:2 6fa CONF:3 b31 CONF:2 0 CONF:0 0 CONF:0 BB SIZE:2
TAG:fe6 FORMAT:3 ENTANGLED_ADDRESSES:38f6 CONF:2 38b8 CONF:0 8877 CONF:3 0 CONF:0 0 CONF:0 0 CONF:0 BB SIZE:2
SET:39
TAG:d45 FORMAT:2 ENTANGLED_ADDRESSES:edfc789 CONF:2 edcabc2 CONF:3 0 CONF:0 0 CONF:0 0 CONF:0 0 CONF:0 BB SIZE:0
TAG:591 FORMAT:3 ENTANGLED_ADDRESSES:7c28 CONF:3 7859 CONF:3 4837 CONF:3 0 CONF:0 0 CONF:0 0 CONF:0 BB SIZE:1
TAG:65c FORMAT:2 ENTANGLED_ADDRESSES:edfc827 CONF:3 edfc80b CONF:3 0 CONF:0 0 CONF:0 0 CONF:0 0 CONF:0 BB SIZE:1
TAG:1517 FORMAT:3 ENTANGLED_ADDRESSES:b5d2 CONF:3 b5d8 CONF:3 b624 CONF:3 0 CONF:0 0 CONF:0 0 CONF:0 BB SIZE:0
TAG:fe6 FORMAT:3 ENTANGLED_ADDRESSES:3d3a CONF:3 228c6 CONF:3 4afe CONF:2 0 CONF:0 0 CONF:0 0 CONF:0 BB SIZE:0
TAG:7f9 FORMAT:2 ENTANGLED_ADDRESSES:e8e49d9 CONF:3 ecc13a7 CONF:3 0 CONF:0 0 CONF:0 0 CONF:0 0 CONF:0 BB SIZE:3
TAG:f09 FORMAT:4 ENTANGLED_ADDRESSES:184c CONF:3 0 CONF:0 0 CONF:0 0 CONF:0 0 CONF:0 0 CONF:0 BB SIZE:2
TAG:708 FORMAT:3 ENTANGLED_ADDRESSES:b4ea CONF:3 70c2 CONF:3 0 CONF:0 0 CONF:0 0 CONF:0 0 CONF:0 BB SIZE:2
TAG:44a FORMAT:3 ENTANGLED_ADDRESSES:f43e CONF:3 0 CONF:0 0 CONF:0 0 CONF:0 0 CONF:0 0 CONF:0 BB SIZE:1
TAG:6c6 FORMAT:3 ENTANGLED_ADDRESSES:13d66 CONF:3 10100 CONF:3 10109 CONF:3 0 CONF:0 0 CONF:0 0 CONF:0 BB SIZE:3
TAG:55b FORMAT:1 ENTANGLED_ADDRESSES:0 CONF:0 0 CONF:0 0 CONF:0 0 CONF:0 0 CONF:0 0 CONF:0 BB SIZE:1
TAG:fd8 FORMAT:4 ENTANGLED_ADDRESSES:9fb CONF:3 9f7 CONF:3 0 CONF:0 0 CONF:0 0 CONF:0 0 CONF:0 BB SIZE:3
TAG:f4c FORMAT:4 ENTANGLED_ADDRESSES:14bc CONF:3 229 CONF:3 0 CONF:0 0 CONF:0 0 CONF:0 0 CONF:0 BB SIZE:1
TAG:1690 FORMAT:3 ENTANGLED_ADDRESSES:3775 CONF:2 0 CONF:0 0 CONF:0 0 CONF:0 0 CONF:0 0 CONF:0 BB SIZE:1
TAG:61b FORMAT:3 ENTANGLED_ADDRESSES:a465 CONF:3 0 CONF:0 0 CONF:0 0 CONF:0 0 CONF:0 0 CONF:0 BB SIZE:1
TAG:53a FORMAT:3 ENTANGLED_ADDRESSES:cbfd CONF:3 1f9b CONF:3 52b4 CONF:2 0 CONF:0 0 CONF:0 0 CONF:0 BB SIZE:4
SET:40
TAG:554 FORMAT:3 ENTANGLED_ADDRESSES:4690 CONF:3 4685 CONF:3 256da CONF:3 0 CONF:0 0 CONF:0 0 CONF:0 BB SIZE:3
TAG:f4a FORMAT:3 ENTANGLED_ADDRESSES:f7ce CONF:3 6de3 CONF:3 6de6 CONF:3 0 CONF:0 0 CONF:0 0 CONF:0 BB SIZE:0
TAG:708 FORMAT:3 ENTANGLED_ADDRESSES:db1c CONF:3 8f55 CONF:3 96d6 CONF:3 0 CONF:0 0 CONF:0 0 CONF:0 BB SIZE:a
TAG:1690 FORMAT:5 ENTANGLED_ADDRESSES:44 CONF:2 0 CONF:0 0 CONF:0 0 CONF:0 0 CONF:0 0 CONF:0 BB SIZE:0
TAG:4ca FORMAT:6 ENTANGLED_ADDRESSES:44 CONF:3 0 CONF:0 0 CONF:0 0 CONF:0 0 CONF:0 0 CONF:0 BB SIZE:1
TAG:56d FORMAT:6 ENTANGLED_ADDRESSES:0 CONF:3 0 CONF:0 0 CONF:0 0 CONF:0 0 CONF:0 0 CONF:0 BB SIZE:0
TAG:16f FORMAT:3 ENTANGLED_ADDRESSES:1271b CONF:3 12727 CONF:3 0 CONF:0 0 CONF:0 0 CONF:0 0 CONF:0 BB SIZE:2
TAG:1298 FORMAT:3 ENTANGLED_ADDRESSES:10b31 CONF:3 377f CONF:3 43bc CONF:2 0 CONF:0 0 CONF:0 0 CONF:0 BB SIZE:3
TAG:14b1 FORMAT:3 ENTANGLED_ADDRESSES:b639 CONF:2 e105 CONF:1 e10a CONF:3 0 CONF:0 0 CONF:0 0 CONF:0 BB SIZE:1
TAG:e2 FORMAT:6 ENTANGLED_ADDRESSES:77 CONF:3 0 CONF:0 0 CONF:0 0 CONF:0 0 CONF:0 0 CONF:0 BB SIZE:5
TAG:6a6 FORMAT:2 ENTANGLED_ADDRESSES:edfc611 CONF:3 0 CONF:0 0 CONF:0 0 CONF:0 0 CONF:0 0 CONF:0 BB SIZE:0
TAG:1a2 FORMAT:3 ENTANGLED_ADDRESSES:fd3a CONF:3 113ad CONF:3 157f2 CONF:2 0 CONF:0 0 CONF:0 0 CONF:0 BB SIZE:11
TAG:44c FORMAT:3 ENTANGLED_ADDRESSES:6b19 CONF:3 5a1f CONF:3 5a30 CONF:3 0 CONF:0 0 CONF:0 0 CONF:0 BB SIZE:d
TAG:f79 FORMAT:4 ENTANGLED_ADDRESSES:1378 CONF:3 1356 CONF:3 135a CONF:3 1358 CONF:3 0 CONF:0 0 CONF:0 BB SIZE:0
TAG:f44 FORMAT:3 ENTANGLED_ADDRESSES:2578c CONF:3 482c CONF:2 2578d CONF:2 0 CONF:0 0 CONF:0 0 CONF:0 BB SIZE:1
TAG:654 FORMAT:1 ENTANGLED_ADDRESSES:0 CONF:0 0 CONF:0 0 CONF:0 0 CONF:0 0 CONF:0 0 CONF:0 BB SIZE:2
SET:41
TAG:6e6 FORMAT:3 ENTANGLED_ADDRESSES:c20d CONF:3 0 CONF:0 0 CONF:0 0 CONF:0 0 CONF:0 0 CONF:0 BB SIZE:1
TAG:419 FORMAT:3 ENTANGLED_ADDRESSES:4e9a CONF:3 0 CONF:0 0 CONF:0 0 CONF:0 0 CONF:0 0 CONF:0 BB SIZE:5
TAG:750 FORMAT:3 ENTANGLED_ADDRESSES:13b45 CONF:3 15c0f CONF:3 0 CONF:0 0 CONF:0 0 CONF:0 0 CONF:0 BB SIZE:6
TAG:d45 FORMAT:2 ENTANGLED_ADDRESSES:edf7249 CONF:3 0 CONF:0 0 CONF:0 0 CONF:0 0 CONF:0 0 CONF:0 BB SIZE:0
TAG:701 FORMAT:3 ENTANGLED_ADDRESSES:3b41 CONF:2 f9d8 CONF:2 459b CONF:3 0 CONF:0 0 CONF:0 0 CONF:0 BB SIZE:2
TAG:7f9 FORMAT:3 ENTANGLED_ADDRESSES:ffa2 CONF:2 ff81 CONF:3 0 CONF:0 0 CONF:0 0 CONF:0 0 CONF:0 BB SIZE:c
TAG:56e FORMAT:3 ENTANGLED_ADDRESSES:38ad CONF:3 4b41 CONF:1 f94e CONF:3 367 CONF:0 0 CONF:0 0 CONF:0 BB SIZE:1
TAG:569 FORMAT:4 ENTANGLED_ADDRESSES:6e2 CONF:2 0 CONF:0 0 CONF:0 0 CONF:0 0 CONF:0 0 CONF:0 BB SIZE:1
TAG:129c FORMAT:2 ENTANGLED_ADDRESSES:edcbc0d CONF:3 edb5cc5 CONF:3 0 CONF:0 0 CONF:0 0 CONF:0 0 CONF:0 BB SIZE:1
TAG:659 FORMAT:6 ENTANGLED_ADDRESSES:7c CONF:2 0 CONF:0 0 CONF:0 0 CONF:0 0 CONF:0 0 CONF:0 BB SIZE:4
TAG:4d7 FORMAT:4 ENTANGLED_ADDRESSES:1d3c CONF:3 1b2d CONF:3 0 CONF:0 0 CONF:0 0 CONF:0 0 CONF:0 BB SIZE:1
TAG:5a7 FORMAT:6 ENTANGLED_ADDRESSES:6c CONF:0 6f CONF:0 c8 CONF:3 c5 CONF:3 c7 CONF:3 0 CONF:0 BB SIZE:0
TAG:f4a FORMAT:4 ENTANGLED_ADDRESSES:1897 CONF:3 185c CONF:3 0 CONF:0 0 CONF:0 0 CONF:0 0 CONF:0 BB SIZE:2
TAG:15c5 FORMAT:2 ENTANGLED_ADDRESSES:eccbd90 CONF:3 eccb752 CONF:3 0 CONF:0 0 CONF:0 0 CONF:0 0 CONF:0 BB SIZE:0
TAG:4b6 FORMAT:6 ENTANGLED_ADDRESSES:31 CONF:3 0 CONF:0 0 CONF:0 0 CONF:0 0 CONF:0 0 CONF:0 BB SIZE:4
TAG:445 FORMAT:3 ENTANGLED_ADDRESSES:6826 CONF:3 6825 CONF:3 388c CONF:3 0 CONF:0 0 CONF:0 0 CONF:0 BB SIZE:1
SET:42
TAG:6d5 FORMAT:3 ENTANGLED_ADDRESSES:d897 CONF:2 d8a1 CONF:3 0 CONF:0 0 CONF:0 0 CONF:0 0 CONF:0 BB SIZE:8
TAG:65c FORMAT:3 ENTANGLED_ADDRESSES:52b4 CONF:3 0 CONF:0 0 CONF:0 0 CONF:0 0 CONF:0 0 CONF:0 BB SIZE:6
TAG:1f8 FORMAT:3 ENTANGLED_ADDRESSES:e01f CONF:3 e022 CONF:3 0 CONF:0 0 CONF:0 0 CONF:0 0 CONF:0 BB SIZE:1
TAG:53d FORMAT:6 ENTANGLED_ADDRESSES:bf CONF:2 b9 CONF:3 0 CONF:0 0 CONF:0 0 CONF:0 0 CONF:0 BB SIZE:3
TAG:708 FORMAT:1 ENTANGLED_ADDRESSES:0 CONF:0 0 CONF:0 0 CONF:0 0 CONF:0 0 CONF:0 0 CONF:0 BB SIZE:3
TAG:56d FORMAT:3 ENTANGLED_ADDRESSES:fd0e CONF:3 38f6 CONF:2 38fe CONF:3 0 CONF:0 0 CONF:0 0 CONF:0 BB SIZE:1
TAG:637 FORMAT:5 ENTANGLED_ADDRESSES:253 CONF:3 0 CONF:0 0 CONF:0 0 CONF:0 0 CONF:0 0 CONF:0 BB SIZE:2
TAG:4d2 FORMAT:3 ENTANGLED_ADDRESSES:f9d2 CONF:3 0 CONF:0 0 CONF:0 0 CONF:0 0 CONF:0 0 CONF:0 BB SIZE:1
TAG:527 FORMAT:4 ENTANGLED_ADDRESSES:1bd6 CONF:2 1bf2 CONF:3 1bf4 CONF:3 0 CONF:0 0 CONF:0 0 CONF:0 BB SIZE:2
TAG:69b FORMAT:3 ENTANGLED_ADDRESSES:feb7 CONF:3 ef9 CONF:3 efc CONF:3 0 CONF:0 0 CONF:0 0 CONF:0 BB SIZE:5
TAG:6a5 FORMAT:1 ENTANGLED_ADDRESSES:3fffc0000207f1e CONF:3 e8e49c2 CONF:0 0 CONF:0 0 CONF:0 0 CONF:0 0 CONF:0 BB SIZE:0
TAG:5a7 FORMAT:3 ENTANGLED_ADDRESSES:8717 CONF:2 0 CONF:0 0 CONF:0 0 CONF:0 0 CONF:0 0 CONF:0 BB SIZE:1
TAG:61c FORMAT:3 ENTANGLED_ADDRESSES:11e9d CONF:3 0 CONF:0 0 CONF:0 0 CONF:0 0 CONF:0 0 CONF:0 BB SIZE:7
TAG:679 FORMAT:3 ENTANGLED_ADDRESSES:141a0 CONF:2 141cf CONF:2 0 CONF:0 0 CONF:0 0 CONF:0 0 CONF:0 BB SIZE:5
TAG:6b8 FORMAT:3 ENTANGLED_ADDRESSES:15d20 CONF:3 8844 CONF:2 8872 CONF:1 0 CONF:0 0 CONF:0 0 CONF:0 BB SIZE:1
TAG:553 FORMAT:5 ENTANGLED_ADDRESSES:2ee CONF:3 0 CONF:0 0 CONF:0 0 CONF:0 0 CONF:0 0 CONF:0 BB SIZE:1
SET:43
TAG:16f FORMAT:3 ENTANGLED_ADDRESSES:4c3b CONF:3 0 CONF:0 0 CONF:0 0 CONF:0 0 CONF:0 0 CONF:0 BB SIZE:2
TAG:1730 FORMAT:3 ENTANGLED_ADDRESSES:271d CONF:3 104af CONF:3 10a8 CONF:3 0 CONF:0 0 CONF:0 0 CONF:0 BB SIZE:0
TAG:43b FORMAT:6 ENTANGLED_ADDRESSES:2f CONF:3 3a CONF:3 0 CONF:0 0 CONF:0 0 CONF:0 0 CONF:0 BB SIZE:6
TAG:f4f FORMAT:4 ENTANGLED_ADDRESSES:104e CONF:2 0 CONF:0 0 CONF:0 0 CONF:0 0 CONF:0 0 CONF:0 BB SIZE:3
TAG:58f FORMAT:6 ENTANGLED_ADDRESSES:ea CONF:3 0 CONF:0 0 CONF:0 0 CONF:0 0 CONF:0 0 CONF:0 BB SIZE:0
TAG:4d2 FORMAT:6 ENTANGLED_ADDRESSES:67 CONF:3 54 CONF:3 8a CONF:3 6d CONF:0 5d CONF:3 6a CONF:3 BB SIZE:0
TAG:f47 FORMAT:6 ENTANGLED_ADDRESSES:f3 CONF:3 0 CONF:0 0 CONF:0 0 CONF:0 0 CONF:0 0 CONF:0 BB SIZE:0
[...]
TAG:708 FORMAT:3 ENTANGLED_ADDRESSES:1737b CONF:3 0 CONF:0 0 CONF:0 0 CONF:0 0 CONF:0 0 CONF:0 BB SIZE:2
TAG:14f FORMAT:6 ENTANGLED_ADDRESSES:d0 CONF:3 d3 CONF:3 0 CONF:0 0 CONF:0 0 CONF:0 0 CONF:0 BB SIZE:7
TAG:5b4 FORMAT:3 ENTANGLED_ADDRESSES:13b1b CONF:3 13b23 CONF:3 0 CONF:0 0 CONF:0 0 CONF:0 0 CONF:0 BB SIZE:0
TAG:604 FORMAT:3 ENTANGLED_ADDRESSES:c0ed CONF:3 12cce CONF:2 0 CONF:0 0 CONF:0 0 CONF:0 0 CONF:0 BB SIZE:1
TAG:44a FORMAT:3 ENTANGLED_ADDRESSES:6afe CONF:3 4411 CONF:3 0 CONF:0 0 CONF:0 0 CONF:0 0 CONF:0 BB SIZE:2
SET:54
TAG:73d FORMAT:3 ENTANGLED_ADDRESSES:89a6 CONF:3 fe4e CONF:3 0 CONF:0 0 CONF:0 0 CONF:0 0 CONF:0 BB SIZE:10
TAG:1b22 FORMAT:5 ENTANGLED_ADDRESSES:3fc CONF:1 360 CONF:3 2db CONF:3 0 CONF:0 0 CONF:0 0 CONF:0 BB SIZE:4
TAG:659 FORMAT:6 ENTANGLED_ADDRESSES:76 CONF:3 7c CONF:3 0 CONF:0 0 CONF:0 0 CONF:0 0 CONF:0 BB SIZE:8
TAG:477 FORMAT:2 ENTANGLED_ADDRESSES:ecc145e CONF:3 edcde6b CONF:3 0 CONF:0 0 CONF:0 0 CONF:0 0 CONF:0 BB SIZE:1
TAG:6b8 FORMAT:3 ENTANGLED_ADDRESSES:7e6a CONF:2 7ed8 CONF:3 4837 CONF:2 0 CONF:0 0 CONF:0 0 CONF:0 BB SIZE:1
TAG:797 FORMAT:3 ENTANGLED_ADDRESSES:16958 CONF:3 0 CONF:0 0 CONF:0 0 CONF:0 0 CONF:0 0 CONF:0 BB SIZE:1a
TAG:723 FORMAT:3 ENTANGLED_ADDRESSES:ae21 CONF:3 0 CONF:0 0 CONF:0 0 CONF:0 0 CONF:0 0 CONF:0 BB SIZE:0
TAG:417 FORMAT:3 ENTANGLED_ADDRESSES:a3a3 CONF:3 0 CONF:0 0 CONF:0 0 CONF:0 0 CONF:0 0 CONF:0 BB SIZE:3
TAG:17f2 FORMAT:2 ENTANGLED_ADDRESSES:edbc9ec CONF:3 edc1170 CONF:3 0 CONF:0 0 CONF:0 0 CONF:0 0 CONF:0 BB SIZE:3
TAG:4dc FORMAT:3 ENTANGLED_ADDRESSES:de76 CONF:3 de7a CONF:3 0 CONF:0 0 CONF:0 0 CONF:0 0 CONF:0 BB SIZE:1
TAG:71 FORMAT:3 ENTANGLED_ADDRESSES:c3b9 CONF:3 0 CONF:0 0 CONF:0 0 CONF:0 0 CONF:0 0 CONF:0 BB SIZE:4
TAG:4d4 FORMAT:5 ENTANGLED_ADDRESSES:282 CONF:3 27c CONF:3 362 CONF:2 0 CONF:0 0 CONF:0 0 CONF:0 BB SIZE:3
TAG:f0c FORMAT:2 ENTANGLED_ADDRESSES:edbdf18 CONF:3 edcabeb CONF:3 0 CONF:0 0 CONF:0 0 CONF:0 0 CONF:0 BB SIZE:1
TAG:70d FORMAT:3 ENTANGLED_ADDRESSES:52b4 CONF:3 0 CONF:0 0 CONF:0 0 CONF:0 0 CONF:0 0 CONF:0 BB SIZE:1
TAG:15c3 FORMAT:6 ENTANGLED_ADDRESSES:de CONF:3 0 CONF:0 0 CONF:0 0 CONF:0 0 CONF:0 0 CONF:0 BB SIZE:0
TAG:557 FORMAT:3 ENTANGLED_ADDRESSES:88b6 CONF:3 88b9 CONF:3 8870 CONF:3 0 CONF:0 0 CONF:0 0 CONF:0 BB SIZE:1
SET:55
TAG:555 FORMAT:3 ENTANGLED_ADDRESSES:228cd CONF:3 49f3 CONF:0 228c6 CONF:3 0 CONF:0 0 CONF:0 0 CONF:0 BB SIZE:1
TAG:4d4 FORMAT:4 ENTANGLED_ADDRESSES:1c31 CONF:3 1a82 CONF:3 1c56 CONF:3 0 CONF:0 0 CONF:0 0 CONF:0 BB SIZE:5
TAG:70b FORMAT:3 ENTANGLED_ADDRESSES:c73c CONF:3 c749 CONF:3 0 CONF:0 0 CONF:0 0 CONF:0 0 CONF:0 BB SIZE:3
TAG:4a1 FORMAT:4 ENTANGLED_ADDRESSES:4a9 CONF:2 0 CONF:0 0 CONF:0 0 CONF:0 0 CONF:0 0 CONF:0 BB SIZE:1
TAG:63d FORMAT:3 ENTANGLED_ADDRESSES:146d1 CONF:3 146d3 CONF:3 e3ed CONF:3 0 CONF:0 0 CONF:0 0 CONF:0 BB SIZE:8
TAG:4f4 FORMAT:6 ENTANGLED_ADDRESSES:50 CONF:3 0 CONF:0 0 CONF:0 0 CONF:0 0 CONF:0 0 CONF:0 BB SIZE:4
TAG:f51 FORMAT:6 ENTANGLED_ADDRESSES:7e CONF:2 70 CONF:2 65 CONF:3 0 CONF:0 0 CONF:0 0 CONF:0 BB SIZE:1
TAG:186 FORMAT:3 ENTANGLED_ADDRESSES:15bea CONF:3 2523 CONF:3 0 CONF:0 0 CONF:0 0 CONF:0 0 CONF:0 BB SIZE:1
TAG:557 FORMAT:3 ENTANGLED_ADDRESSES:24047 CONF:3 2404b CONF:3 0 CONF:0 0 CONF:0 0 CONF:0 0 CONF:0 BB SIZE:0
TAG:19f FORMAT:6 ENTANGLED_ADDRESSES:f3 CONF:3 0 CONF:0 0 CONF:0 0 CONF:0 0 CONF:0 0 CONF:0 BB SIZE:7
TAG:44a FORMAT:5 ENTANGLED_ADDRESSES:2e8 CONF:3 0 CONF:0 0 CONF:0 0 CONF:0 0 CONF:0 0 CONF:0 BB SIZE:2
TAG:6b8 FORMAT:3 ENTANGLED_ADDRESSES:3905 CONF:2 38fe CONF:2 38f6 CONF:1 0 CONF:0 0 CONF:0 0 CONF:0 BB SIZE:1
TAG:483 FORMAT:3 ENTANGLED_ADDRESSES:d5ad CONF:3 d5ae CONF:3 0 CONF:0 0 CONF:0 0 CONF:0 0 CONF:0 BB SIZE:9
TAG:4c3 FORMAT:3 ENTANGLED_ADDRESSES:fd0e CONF:3 38f6 CONF:1 fd10 CONF:3 0 CONF:0 0 CONF:0 0 CONF:0 BB SIZE:1
TAG:d45 FORMAT:2 ENTANGLED_ADDRESSES:edcbc09 CONF:3 edcbc02 CONF:3 0 CONF:0 0 CONF:0 0 CONF:0 0 CONF:0 BB SIZE:0
TAG:740 FORMAT:3 ENTANGLED_ADDRESSES:d5b5 CONF:3 9092 CONF:3 16bf2 CONF:0 0 CONF:0 0 CONF:0 0 CONF:0 BB SIZE:3
SET:56
TAG:4fa FORMAT:3 ENTANGLED_ADDRESSES:619c CONF:3 0 CONF:0 0 CONF:0 0 CONF:0 0 CONF:0 0 CONF:0 BB SIZE:2
TAG:6c9 FORMAT:3 ENTANGLED_ADDRESSES:1fa8 CONF:3 eac CONF:3 0 CONF:0 0 CONF:0 0 CONF:0 0 CONF:0 BB SIZE:6
TAG:5b2 FORMAT:3 ENTANGLED_ADDRESSES:f48 CONF:3 cb8d CONF:1 f0f CONF:1 0 CONF:0 0 CONF:0 0 CONF:0 BB SIZE:0
TAG:555 FORMAT:3 ENTANGLED_ADDRESSES:27706 CONF:3 0 CONF:0 0 CONF:0 0 CONF:0 0 CONF:0 0 CONF:0 BB SIZE:0
TAG:4d2 FORMAT:6 ENTANGLED_ADDRESSES:8c CONF:2 0 CONF:0 0 CONF:0 0 CONF:0 0 CONF:0 0 CONF:0 BB SIZE:1
TAG:7de FORMAT:3 ENTANGLED_ADDRESSES:f5db CONF:3 33c3 CONF:0 cabb CONF:2 0 CONF:0 0 CONF:0 0 CONF:0 BB SIZE:4
TAG:60b FORMAT:3 ENTANGLED_ADDRESSES:4671 CONF:3 0 CONF:0 0 CONF:0 0 CONF:0 0 CONF:0 0 CONF:0 BB SIZE:0
TAG:15c3 FORMAT:4 ENTANGLED_ADDRESSES:1580 CONF:3 1632 CONF:3 0 CONF:0 0 CONF:0 0 CONF:0 0 CONF:0 BB SIZE:1
TAG:46b FORMAT:2 ENTANGLED_ADDRESSES:edc7628 CONF:3 edcde74 CONF:3 0 CONF:0 0 CONF:0 0 CONF:0 0 CONF:0 BB SIZE:9
TAG:fe3 FORMAT:3 ENTANGLED_ADDRESSES:212c CONF:2 20b3 CONF:3 2133 CONF:2 0 CONF:0 0 CONF:0 0 CONF:0 BB SIZE:1
TAG:4ca FORMAT:4 ENTANGLED_ADDRESSES:1a98 CONF:1 1a7b CONF:3 1c2e CONF:3 1c28 CONF:2 0 CONF:0 0 CONF:0 BB SIZE:1
TAG:96 FORMAT:2 ENTANGLED_ADDRESSES:edc818e CONF:3 0 CONF:0 0 CONF:0 0 CONF:0 0 CONF:0 0 CONF:0 BB SIZE:2
TAG:760 FORMAT:3 ENTANGLED_ADDRESSES:5a9d CONF:3 5aaf CONF:3 0 CONF:0 0 CONF:0 0 CONF:0 0 CONF:0 BB SIZE:4
TAG:f4b FORMAT:4 ENTANGLED_ADDRESSES:18fa CONF:2 145d CONF:3 0 CONF:0 0 CONF:0 0 CONF:0 0 CONF:0 BB SIZE:0
TAG:f4f FORMAT:4 ENTANGLED_ADDRESSES:1969 CONF:3 0 CONF:0 0 CONF:0 0 CONF:0 0 CONF:0 0 CONF:0 BB SIZE:6
TAG:15c5 FORMAT:1 ENTANGLED_ADDRESSES:0 CONF:0 0 CONF:0 0 CONF:0 0 CONF:0 0 CONF:0 0 CONF:0 BB SIZE:1
SET:57
TAG:f4b FORMAT:5 ENTANGLED_ADDRESSES:5b CONF:3 0 CONF:0 0 CONF:0 0 CONF:0 0 CONF:0 0 CONF:0 BB SIZE:2
TAG:4dc FORMAT:4 ENTANGLED_ADDRESSES:1439 CONF:3 0 CONF:0 0 CONF:0 0 CONF:0 0 CONF:0 0 CONF:0 BB SIZE:4
TAG:4d1 FORMAT:5 ENTANGLED_ADDRESSES:c3 CONF:3 c0 CONF:2 366 CONF:2 2bb CONF:3 0 CONF:0 0 CONF:0 BB SIZE:4
TAG:58c FORMAT:3 ENTANGLED_ADDRESSES:77ac CONF:3 88b4 CONF:3 77a7 CONF:2 0 CONF:0 0 CONF:0 0 CONF:0 BB SIZE:2
TAG:1436 FORMAT:2 ENTANGLED_ADDRESSES:ecca94f CONF:3 ecccb87 CONF:3 0 CONF:0 0 CONF:0 0 CONF:0 0 CONF:0 BB SIZE:2
TAG:5bf FORMAT:3 ENTANGLED_ADDRESSES:240cf CONF:2 709b CONF:2 6311 CONF:2 0 CONF:0 0 CONF:0 0 CONF:0 BB SIZE:4
TAG:fe3 FORMAT:3 ENTANGLED_ADDRESSES:3d3a CONF:3 0 CONF:0 0 CONF:0 0 CONF:0 0 CONF:0 0 CONF:0 BB SIZE:3
TAG:f47 FORMAT:3 ENTANGLED_ADDRESSES:2768f CONF:3 2768b CONF:3 0 CONF:0 0 CONF:0 0 CONF:0 0 CONF:0 BB SIZE:2
TAG:67e FORMAT:3 ENTANGLED_ADDRESSES:cb9a CONF:3 2612 CONF:3 0 CONF:0 0 CONF:0 0 CONF:0 0 CONF:0 BB SIZE:2
TAG:e2 FORMAT:6 ENTANGLED_ADDRESSES:47 CONF:1 0 CONF:0 0 CONF:0 0 CONF:0 0 CONF:0 0 CONF:0 BB SIZE:2
TAG:797 FORMAT:3 ENTANGLED_ADDRESSES:ef9 CONF:3 0 CONF:0 0 CONF:0 0 CONF:0 0 CONF:0 0 CONF:0 BB SIZE:d
TAG:7f1 FORMAT:3 ENTANGLED_ADDRESSES:17374 CONF:3 0 CONF:0 0 CONF:0 0 CONF:0 0 CONF:0 0 CONF:0 BB SIZE:3
TAG:57a FORMAT:2 ENTANGLED_ADDRESSES:edff413 CONF:3 ecc33d5 CONF:3 0 CONF:0 0 CONF:0 0 CONF:0 0 CONF:0 BB SIZE:2
TAG:150 FORMAT:6 ENTANGLED_ADDRESSES:ae CONF:3 0 CONF:0 0 CONF:0 0 CONF:0 0 CONF:0 0 CONF:0 BB SIZE:7
TAG:552 FORMAT:6 ENTANGLED_ADDRESSES:a0 CONF:3 0 CONF:0 0 CONF:0 0 CONF:0 0 CONF:0 0 CONF:0 BB SIZE:3
TAG:69c FORMAT:3 ENTANGLED_ADDRESSES:12811 CONF:2 870d CONF:1 0 CONF:0 0 CONF:0 0 CONF:0 0 CONF:0 BB SIZE:5
SET:58
TAG:f54 FORMAT:4 ENTANGLED_ADDRESSES:19ad CONF:3 1a32 CONF:2 b3d CONF:2 b40 CONF:3 0 CONF:0 0 CONF:0 BB SIZE:1
TAG:5bc FORMAT:3 ENTANGLED_ADDRESSES:700a CONF:0 6311 CONF:2 25519 CONF:2 0 CONF:0 0 CONF:0 0 CONF:0 BB SIZE:3
TAG:f72 FORMAT:4 ENTANGLED_ADDRESSES:17d5 CONF:2 0 CONF:0 0 CONF:0 0 CONF:0 0 CONF:0 0 CONF:0 BB SIZE:3
TAG:f79 FORMAT:6 ENTANGLED_ADDRESSES:36 CONF:3 3a CONF:3 38 CONF:3 0 CONF:0 0 CONF:0 0 CONF:0 BB SIZE:3
TAG:56d FORMAT:6 ENTANGLED_ADDRESSES:aa CONF:3 a7 CONF:3 a9 CONF:3 46 CONF:3 44 CONF:3 23 CONF:3 BB SIZE:1
TAG:f4b FORMAT:4 ENTANGLED_ADDRESSES:d2 CONF:3 0 CONF:0 0 CONF:0 0 CONF:0 0 CONF:0 0 CONF:0 BB SIZE:1
TAG:5eb FORMAT:3 ENTANGLED_ADDRESSES:5bf7 CONF:3 5be3 CONF:3 0 CONF:0 0 CONF:0 0 CONF:0 0 CONF:0 BB SIZE:2
TAG:1517 FORMAT:3 ENTANGLED_ADDRESSES:10b44 CONF:3 10b46 CONF:3 10b47 CONF:3 0 CONF:0 0 CONF:0 0 CONF:0 BB SIZE:1
TAG:6bf FORMAT:1 ENTANGLED_ADDRESSES:0 CONF:0 0 CONF:0 0 CONF:0 0 CONF:0 0 CONF:0 0 CONF:0 BB SIZE:3
TAG:144 FORMAT:3 ENTANGLED_ADDRESSES:16294 CONF:2 1627e CONF:2 77cc CONF:3 0 CONF:0 0 CONF:0 0 CONF:0 BB SIZE:4
TAG:4c3 FORMAT:3 ENTANGLED_ADDRESSES:8869 CONF:1 3eb4 CONF:3 886c CONF:3 0 CONF:0 0 CONF:0 0 CONF:0 BB SIZE:3
TAG:1d0 FORMAT:3 ENTANGLED_ADDRESSES:40fc CONF:3 0 CONF:0 0 CONF:0 0 CONF:0 0 CONF:0 0 CONF:0 BB SIZE:a
TAG:fe3 FORMAT:3 ENTANGLED_ADDRESSES:3d3d CONF:3 3d3a CONF:3 38bd CONF:3 0 CONF:0 0 CONF:0 0 CONF:0 BB SIZE:1
TAG:5a7 FORMAT:3 ENTANGLED_ADDRESSES:871c CONF:3 8717 CONF:3 870a CONF:3 0 CONF:0 0 CONF:0 0 CONF:0 BB SIZE:2
TAG:f73 FORMAT:5 ENTANGLED_ADDRESSES:4e CONF:1 43 CONF:3 218 CONF:3 215 CONF:3 116 CONF:3 0 CONF:0 BB SIZE:2
TAG:1 FORMAT:3 ENTANGLED_ADDRESSES:5791 CONF:2 0 CONF:0 0 CONF:0 0 CONF:0 0 CONF:0 0 CONF:0 BB SIZE:1
SET:59
TAG:591 FORMAT:3 ENTANGLED_ADDRESSES:8869 CONF:1 0 CONF:0 0 CONF:0 0 CONF:0 0 CONF:0 0 CONF:0 BB SIZE:0
TAG:f0b FORMAT:3 ENTANGLED_ADDRESSES:709f CONF:3 240d4 CONF:3 0 CONF:0 0 CONF:0 0 CONF:0 0 CONF:0 BB SIZE:2
TAG:708 FORMAT:4 ENTANGLED_ADDRESSES:f59 CONF:3 0 CONF:0 0 CONF:0 0 CONF:0 0 CONF:0 0 CONF:0 BB SIZE:3
TAG:4b9 FORMAT:3 ENTANGLED_ADDRESSES:5347 CONF:1 9668 CONF:2 0 CONF:0 0 CONF:0 0 CONF:0 0 CONF:0 BB SIZE:2
TAG:71e FORMAT:3 ENTANGLED_ADDRESSES:c005 CONF:2 0 CONF:0 0 CONF:0 0 CONF:0 0 CONF:0 0 CONF:0 BB SIZE:e
TAG:579 FORMAT:3 ENTANGLED_ADDRESSES:15bd6 CONF:3 15bf2 CONF:3 0 CONF:0 0 CONF:0 0 CONF:0 0 CONF:0 BB SIZE:5
TAG:186 FORMAT:6 ENTANGLED_ADDRESSES:3c CONF:2 4b CONF:3 0 CONF:0 0 CONF:0 0 CONF:0 0 CONF:0 BB SIZE:0
TAG:7d6 FORMAT:6 ENTANGLED_ADDRESSES:9e CONF:3 0 CONF:0 0 CONF:0 0 CONF:0 0 CONF:0 0 CONF:0 BB SIZE:1
TAG:4d1 FORMAT:5 ENTANGLED_ADDRESSES:2bb CONF:3 0 CONF:0 0 CONF:0 0 CONF:0 0 CONF:0 0 CONF:0 BB SIZE:2
TAG:792 FORMAT:3 ENTANGLED_ADDRESSES:5a1f CONF:3 0 CONF:0 0 CONF:0 0 CONF:0 0 CONF:0 0 CONF:0 BB SIZE:4
TAG:6b3 FORMAT:3 ENTANGLED_ADDRESSES:151e7 CONF:3 0 CONF:0 0 CONF:0 0 CONF:0 0 CONF:0 0 CONF:0 BB SIZE:1
TAG:1 FORMAT:3 ENTANGLED_ADDRESSES:680b CONF:3 5791 CONF:2 1f97 CONF:3 0 CONF:0 0 CONF:0 0 CONF:0 BB SIZE:1
TAG:5a7 FORMAT:3 ENTANGLED_ADDRESSES:e9f7 CONF:3 0 CONF:0 0 CONF:0 0 CONF:0 0 CONF:0 0 CONF:0 BB SIZE:3
TAG:1944 FORMAT:3 ENTANGLED_ADDRESSES:388fe CONF:2 385f2 CONF:2 3f40c CONF:3 0 CONF:0 0 CONF:0 0 CONF:0 BB SIZE:1
TAG:636 FORMAT:3 ENTANGLED_ADDRESSES:f0f CONF:3 f12 CONF:3 0 CONF:0 0 CONF:0 0 CONF:0 0 CONF:0 BB SIZE:1
TAG:1b20 FORMAT:1 ENTANGLED_ADDRESSES:3fffc00002020a1 CONF:3 0 CONF:0 0 CONF:0 0 CONF:0 0 CONF:0 0 CONF:0 BB SIZE:0
SET:60
TAG:187 FORMAT:6 ENTANGLED_ADDRESSES:23 CONF:3 0 CONF:0 0 CONF:0 0 CONF:0 0 CONF:0 0 CONF:0 BB SIZE:5
TAG:5ef FORMAT:4 ENTANGLED_ADDRESSES:f0f CONF:3 0 CONF:0 0 CONF:0 0 CONF:0 0 CONF:0 0 CONF:0 BB SIZE:1
TAG:fe3 FORMAT:6 ENTANGLED_ADDRESSES:fa CONF:3 f3 CONF:3 fb CONF:3 fe CONF:3 0 CONF:0 0 CONF:0 BB SIZE:2
TAG:558 FORMAT:3 ENTANGLED_ADDRESSES:39a1 CONF:3 3bbf CONF:3 7e20 CONF:2 0 CONF:0 0 CONF:0 0 CONF:0 BB SIZE:5
TAG:7fc FORMAT:3 ENTANGLED_ADDRESSES:c343 CONF:3 c337 CONF:3 b780 CONF:1 0 CONF:0 0 CONF:0 0 CONF:0 BB SIZE:1
TAG:146 FORMAT:3 ENTANGLED_ADDRESSES:16252 CONF:2 dc05 CONF:3 0 CONF:0 0 CONF:0 0 CONF:0 0 CONF:0 BB SIZE:8
TAG:557 FORMAT:3 ENTANGLED_ADDRESSES:77b3 CONF:2 0 CONF:0 0 CONF:0 0 CONF:0 0 CONF:0 0 CONF:0 BB SIZE:2
TAG:71 FORMAT:3 ENTANGLED_ADDRESSES:15649 CONF:3 0 CONF:0 0 CONF:0 0 CONF:0 0 CONF:0 0 CONF:0 BB SIZE:1
TAG:1727 FORMAT:2 ENTANGLED_ADDRESSES:edbd39c CONF:3 edcefec CONF:3 0 CONF:0 0 CONF:0 0 CONF:0 0 CONF:0 BB SIZE:2
TAG:561 FORMAT:3 ENTANGLED_ADDRESSES:7858 CONF:3 77b2 CONF:2 7e6f CONF:3 0 CONF:0 0 CONF:0 0 CONF:0 BB SIZE:1
TAG:56d FORMAT:3 ENTANGLED_ADDRESSES:f7ce CONF:2 4bb6 CONF:3 4bac CONF:3 4b44 CONF:0 23 CONF:0 31 CONF:0 BB SIZE:4
TAG:553 FORMAT:4 ENTANGLED_ADDRESSES:707 CONF:3 6e0 CONF:3 a87 CONF:0 0 CONF:0 0 CONF:0 0 CONF:0 BB SIZE:2
TAG:4d2 FORMAT:5 ENTANGLED_ADDRESSES:2bb CONF:3 2a2 CONF:3 0 CONF:0 0 CONF:0 0 CONF:0 0 CONF:0 BB SIZE:0
TAG:4ca FORMAT:6 ENTANGLED_ADDRESSES:30 CONF:3 37 CONF:0 3f CONF:0 0 CONF:0 0 CONF:0 0 CONF:0 BB SIZE:1
TAG:69 FORMAT:2 ENTANGLED_ADDRESSES:ecd3cc6 CONF:0 edd0d0c CONF:3 0 CONF:0 0 CONF:0 0 CONF:0 0 CONF:0 BB SIZE:5
TAG:186 FORMAT:3 ENTANGLED_ADDRESSES:95f9 CONF:3 0 CONF:0 0 CONF:0 0 CONF:0 0 CONF:0 0 CONF:0 BB SIZE:2
SET:61
TAG:f72 FORMAT:3 ENTANGLED_ADDRESSES:4a84 CONF:3 0 CONF:0 0 CONF:0 0 CONF:0 0 CONF:0 0 CONF:0 BB SIZE:1
TAG:e2 FORMAT:6 ENTANGLED_ADDRESSES:50 CONF:3 4d CONF:3 0 CONF:0 0 CONF:0 0 CONF:0 0 CONF:0 BB SIZE:2
TAG:7fc FORMAT:2 ENTANGLED_ADDRESSES:eccbd90 CONF:2 edf7755 CONF:3 0 CONF:0 0 CONF:0 0 CONF:0 0 CONF:0 BB SIZE:2
TAG:657 FORMAT:2 ENTANGLED_ADDRESSES:edff40e CONF:3 eccb74f CONF:2 0 CONF:0 0 CONF:0 0 CONF:0 0 CONF:0 BB SIZE:4
TAG:6ee FORMAT:3 ENTANGLED_ADDRESSES:b637 CONF:3 0 CONF:0 0 CONF:0 0 CONF:0 0 CONF:0 0 CONF:0 BB SIZE:3
TAG:f46 FORMAT:5 ENTANGLED_ADDRESSES:ab CONF:3 0 CONF:0 0 CONF:0 0 CONF:0 0 CONF:0 0 CONF:0 BB SIZE:0
TAG:1b20 FORMAT:2 ENTANGLED_ADDRESSES:edfc813 CONF:2 edb5cbc CONF:1 0 CONF:0 0 CONF:0 0 CONF:0 0 CONF:0 BB SIZE:0
TAG:15c3 FORMAT:3 ENTANGLED_ADDRESSES:3c661 CONF:3 bbe0 CONF:3 bbdf CONF:3 0 CONF:0 0 CONF:0 0 CONF:0 BB SIZE:5
TAG:4dd FORMAT:3 ENTANGLED_ADDRESSES:4bc4 CONF:1 4bc6 CONF:1 38f6 CONF:2 0 CONF:0 0 CONF:0 0 CONF:0 BB SIZE:1
TAG:5a6 FORMAT:4 ENTANGLED_ADDRESSES:1831 CONF:3 1834 CONF:3 0 CONF:0 0 CONF:0 0 CONF:0 0 CONF:0 BB SIZE:1
TAG:496 FORMAT:2 ENTANGLED_ADDRESSES:edcba33 CONF:3 edf891b CONF:3 0 CONF:0 0 CONF:0 0 CONF:0 0 CONF:0 BB SIZE:3
TAG:723 FORMAT:3 ENTANGLED_ADDRESSES:2251 CONF:3 b35c CONF:3 0 CONF:0 0 CONF:0 0 CONF:0 0 CONF:0 BB SIZE:2
TAG:43d FORMAT:5 ENTANGLED_ADDRESSES:125 CONF:3 0 CONF:0 0 CONF:0 0 CONF:0 0 CONF:0 0 CONF:0 BB SIZE:5
TAG:417 FORMAT:3 ENTANGLED_ADDRESSES:783a CONF:3 be43 CONF:3 0 CONF:0 0 CONF:0 0 CONF:0 0 CONF:0 BB SIZE:7
TAG:69c FORMAT:3 ENTANGLED_ADDRESSES:1f9e CONF:2 0 CONF:0 0 CONF:0 0 CONF:0 0 CONF:0 0 CONF:0 BB SIZE:4
TAG:713 FORMAT:3 ENTANGLED_ADDRESSES:fcfc CONF:2 27766 CONF:3 79d6 CONF:3 0 CONF:0 0 CONF:0 0 CONF:0 BB SIZE:1
SET:62
TAG:554 FORMAT:3 ENTANGLED_ADDRESSES:23f8c CONF:3 0 CONF:0 0 CONF:0 0 CONF:0 0 CONF:0 0 CONF:0 BB SIZE:1
TAG:f73 FORMAT:3 ENTANGLED_ADDRESSES:2587f CONF:3 4688 CONF:3 468d CONF:3 0 CONF:0 0 CONF:0 0 CONF:0 BB SIZE:5
TAG:53f FORMAT:3 ENTANGLED_ADDRESSES:5bf2 CONF:2 5ba2 CONF:3 6191 CONF:3 0 CONF:0 0 CONF:0 0 CONF:0 BB SIZE:5
TAG:52a FORMAT:6 ENTANGLED_ADDRESSES:7a CONF:3 0 CONF:0 0 CONF:0 0 CONF:0 0 CONF:0 0 CONF:0 BB SIZE:1
TAG:4fa FORMAT:3 ENTANGLED_ADDRESSES:303b CONF:3 87cb CONF:3 0 CONF:0 0 CONF:0 0 CONF:0 0 CONF:0 BB SIZE:1
TAG:1a5 FORMAT:6 ENTANGLED_ADDRESSES:65 CONF:3 60 CONF:3 0 CONF:0 0 CONF:0 0 CONF:0 0 CONF:0 BB SIZE:5
TAG:71 FORMAT:3 ENTANGLED_ADDRESSES:235c CONF:3 2380 CONF:3 0 CONF:0 0 CONF:0 0 CONF:0 0 CONF:0 BB SIZE:1
TAG:591 FORMAT:3 ENTANGLED_ADDRESSES:3ea5 CONF:1 0 CONF:0 0 CONF:0 0 CONF:0 0 CONF:0 0 CONF:0 BB SIZE:0
TAG:723 FORMAT:4 ENTANGLED_ADDRESSES:828 CONF:3 628 CONF:3 954 CONF:3 0 CONF:0 0 CONF:0 0 CONF:0 BB SIZE:1
TAG:5c4 FORMAT:3 ENTANGLED_ADDRESSES:862c CONF:3 0 CONF:0 0 CONF:0 0 CONF:0 0 CONF:0 0 CONF:0 BB SIZE:2
TAG:4d2 FORMAT:6 ENTANGLED_ADDRESSES:73 CONF:1 75 CONF:1 0 CONF:0 0 CONF:0 0 CONF:0 0 CONF:0 BB SIZE:1
TAG:7e8 FORMAT:3 ENTANGLED_ADDRESSES:f0c CONF:3 f0f CONF:3 b371 CONF:3 0 CONF:0 0 CONF:0 0 CONF:0 BB SIZE:1
TAG:6bf FORMAT:4 ENTANGLED_ADDRESSES:1bbc CONF:3 0 CONF:0 0 CONF:0 0 CONF:0 0 CONF:0 0 CONF:0 BB SIZE:3
TAG:19f FORMAT:3 ENTANGLED_ADDRESSES:e820 CONF:3 d897 CONF:3 0 CONF:0 0 CONF:0 0 CONF:0 0 CONF:0 BB SIZE:9
TAG:59b FORMAT:3 ENTANGLED_ADDRESSES:3b14 CONF:3 2788 CONF:3 0 CONF:0 0 CONF:0 0 CONF:0 0 CONF:0 BB SIZE:2
TAG:1d0 FORMAT:3 ENTANGLED_ADDRESSES:d57a CONF:3 6f0f CONF:3 0 CONF:0 0 CONF:0 0 CONF:0 0 CONF:0 BB SIZE:d
SET:63
TAG:5eb FORMAT:6 ENTANGLED_ADDRESSES:67 CONF:3 0 CONF:0 0 CONF:0 0 CONF:0 0 CONF:0 0 CONF:0 BB SIZE:6
TAG:53f FORMAT:2 ENTANGLED_ADDRESSES:edcba33 CONF:2 edf891b CONF:3 0 CONF:0 0 CONF:0 0 CONF:0 0 CONF:0 BB SIZE:7
TAG:fe5 FORMAT:3 ENTANGLED_ADDRESSES:277c7 CONF:0 4b3e CONF:2 21f2 CONF:3 0 CONF:0 0 CONF:0 0 CONF:0 BB SIZE:0
TAG:736 FORMAT:3 ENTANGLED_ADDRESSES:f802 CONF:3 46d7 CONF:3 0 CONF:0 0 CONF:0 0 CONF:0 0 CONF:0 BB SIZE:2
TAG:110 FORMAT:4 ENTANGLED_ADDRESSES:c2 CONF:3 0 CONF:0 0 CONF:0 0 CONF:0 0 CONF:0 0 CONF:0 BB SIZE:3
TAG:5a7 FORMAT:3 ENTANGLED_ADDRESSES:79e8 CONF:3 fc1a CONF:3 7772 CONF:3 0 CONF:0 0 CONF:0 0 CONF:0 BB SIZE:3
TAG:54c FORMAT:3 ENTANGLED_ADDRESSES:3dc0 CONF:3 4f9c CONF:3 f436 CONF:3 0 CONF:0 0 CONF:0 0 CONF:0 BB SIZE:3
TAG:4b9 FORMAT:1 ENTANGLED_ADDRESSES:0 CONF:0 0 CONF:0 0 CONF:0 0 CONF:0 0 CONF:0 0 CONF:0 BB SIZE:a
TAG:57a FORMAT:2 ENTANGLED_ADDRESSES:ecc4f7a CONF:1 edd0d0c CONF:3 0 CONF:0 0 CONF:0 0 CONF:0 0 CONF:0 BB SIZE:1
TAG:1d0 FORMAT:3 ENTANGLED_ADDRESSES:40fc CONF:3 2b09 CONF:3 2290 CONF:0 0 CONF:0 0 CONF:0 0 CONF:0 BB SIZE:c
TAG:f77 FORMAT:6 ENTANGLED_ADDRESSES:71 CONF:3 0 CONF:0 0 CONF:0 0 CONF:0 0 CONF:0 0 CONF:0 BB SIZE:1
TAG:413 FORMAT:6 ENTANGLED_ADDRESSES:6b CONF:3 6a CONF:3 68 CONF:3 0 CONF:0 0 CONF:0 0 CONF:0 BB SIZE:0
TAG:fe3 FORMAT:3 ENTANGLED_ADDRESSES:212e CONF:2 0 CONF:0 0 CONF:0 0 CONF:0 0 CONF:0 0 CONF:0 BB SIZE:2
TAG:20f FORMAT:5 ENTANGLED_ADDRESSES:b4 CONF:2 18f CONF:2 0 CONF:0 0 CONF:0 0 CONF:0 0 CONF:0 BB SIZE:1
TAG:f47 FORMAT:3 ENTANGLED_ADDRESSES:26379 CONF:3 0 CONF:0 0 CONF:0 0 CONF:0 0 CONF:0 0 CONF:0 BB SIZE:1
TAG:fa1 FORMAT:3 ENTANGLED_ADDRESSES:2558f CONF:2 256fe CONF:2 256db CONF:2 0 CONF:0 0 CONF:0 0 CONF:0 BB SIZE:1
SET:64
TAG:7a3 FORMAT:3 ENTANGLED_ADDRESSES:d3ae CONF:3 28f3 CONF:3 11f98 CONF:3 0 CONF:0 0 CONF:0 0 CONF:0 BB SIZE:1
TAG:4cb FORMAT:6 ENTANGLED_ADDRESSES:44 CONF:2 2e CONF:3 28 CONF:3 0 CONF:0 0 CONF:0 0 CONF:0 BB SIZE:3
TAG:5a6 FORMAT:4 ENTANGLED_ADDRESSES:1831 CONF:3 1834 CONF:3 0 CONF:0 0 CONF:0 0 CONF:0 0 CONF:0 BB SIZE:1
TAG:f51 FORMAT:6 ENTANGLED_ADDRESSES:6f CONF:2 0 CONF:2 68 CONF:3 0 CONF:0 0 CONF:0 0 CONF:0 BB SIZE:1
TAG:f52 FORMAT:6 ENTANGLED_ADDRESSES:65 CONF:2 67 CONF:2 0 CONF:0 0 CONF:0 0 CONF:0 0 CONF:0 BB SIZE:1
TAG:f16 FORMAT:3 ENTANGLED_ADDRESSES:17d40 CONF:3 0 CONF:0 0 CONF:0 0 CONF:0 0 CONF:0 0 CONF:0 BB SIZE:3
TAG:f79 FORMAT:6 ENTANGLED_ADDRESSES:36 CONF:2 3a CONF:2 38 CONF:2 0 CONF:0 0 CONF:0 0 CONF:0 BB SIZE:2
TAG:150 FORMAT:4 ENTANGLED_ADDRESSES:8ac CONF:3 0 CONF:0 0 CONF:0 0 CONF:0 0 CONF:0 0 CONF:0 BB SIZE:2
TAG:1298 FORMAT:3 ENTANGLED_ADDRESSES:bc05 CONF:3 0 CONF:0 0 CONF:0 0 CONF:0 0 CONF:0 0 CONF:0 BB SIZE:0
TAG:25 FORMAT:6 ENTANGLED_ADDRESSES:b3 CONF:3 ad CONF:3 0 CONF:0 0 CONF:0 0 CONF:0 0 CONF:0 BB SIZE:6
TAG:792 FORMAT:6 ENTANGLED_ADDRESSES:36 CONF:3 38 CONF:3 0 CONF:0 0 CONF:0 0 CONF:0 0 CONF:0 BB SIZE:7
TAG:555 FORMAT:3 ENTANGLED_ADDRESSES:46fa CONF:2 38ad CONF:3 0 CONF:0 0 CONF:0 0 CONF:0 0 CONF:0 BB SIZE:2
TAG:70d FORMAT:3 ENTANGLED_ADDRESSES:f9d2 CONF:3 46ff CONF:3 46fc CONF:3 0 CONF:0 0 CONF:0 0 CONF:0 BB SIZE:2
TAG:fe5 FORMAT:3 ENTANGLED_ADDRESSES:276fb CONF:3 277e1 CONF:2 459c CONF:2 0 CONF:0 0 CONF:0 0 CONF:0 BB SIZE:1
TAG:1f8 FORMAT:3 ENTANGLED_ADDRESSES:ddab CONF:3 ff00 CONF:3 1400b CONF:3 0 CONF:0 0 CONF:0 0 CONF:0 BB SIZE:4
TAG:5e2 FORMAT:3 ENTANGLED_ADDRESSES:c17d CONF:2 0 CONF:0 0 CONF:0 0 CONF:0 0 CONF:0 0 CONF:0 BB SIZE:0

DRAM Statistics
 CHANNEL 0
 RQ ROW_BUFFER_HIT:       6094  ROW_BUFFER_MISS:      1b6fd
 DBUS AVG_CONGESTED_CYCLE:    3.91201
 WQ ROW_BUFFER_HIT:       2936  ROW_BUFFER_MISS:       f96e  FULL:          0


CPU 0 Branch Prediction Accuracy: 96.6016% MPKI: 5.79844 Average ROB Occupancy at Mispredict: 189.046
Branch type MPKI
BRANCH_DIRECT_JUMP: 0.0432
BRANCH_INDIRECT: 0.12976
BRANCH_CONDITIONAL: 4.13248
BRANCH_DIRECT_CALL: 0.06328
BRANCH_INDIRECT_CALL: 0.0208
BRANCH_RETURN: 1.40892

