
*** ChampSim Multicore Out-of-Order Simulator ***

Warmup Instructions: 25000000
Simulation Instructions: 25000000
Number of CPUs: 1
Off-chip DRAM Size: 4 GiB Channels: 1 Width: 64-bit Data Rate: 3200 MT/s

VirtualMemory physical capacity: 8588881920 num_ppages: 2096895
VirtualMemory page size: 4096 log2_page_size: 12

CPU 0 runs ipc1_public/server_002.champsimtrace.xz
Basic BTB sets: 1024 ways: 8 indirect buffer size: 4096 RAS size: 64
cpu0_STLB next line prefetcher
cpu0_L1D next line prefetcher
WARNING: The extended signature CACHE::prefetch_line(ip, base_addr, pf_addr, fill_this_level, prefetch_metadata) is deprecated.
WARNING: Use CACHE::prefetch_line(pf_addr, fill_this_level, prefetch_metadata) instead.
Heartbeat CPU 0 instructions: 10000001 cycles: 2504070 heartbeat IPC: 3.9935 cumulative IPC: 3.9935 (Simulation time: 0 hr 0 min 26 sec) 
Heartbeat CPU 0 instructions: 20000002 cycles: 5033580 heartbeat IPC: 3.95334 cumulative IPC: 3.97332 (Simulation time: 0 hr 0 min 52 sec) 

Warmup complete CPU 0 instructions: 25000002 cycles: 6283580 (Simulation time: 0 hr 1 min 5 sec) 

Heartbeat CPU 0 instructions: 30000001 cycles: 10273095 heartbeat IPC: 1.90857 cumulative IPC: 1.25328 (Simulation time: 0 hr 1 min 33 sec) 
Heartbeat CPU 0 instructions: 40000004 cycles: 17626329 heartbeat IPC: 1.35995 cumulative IPC: 1.32243 (Simulation time: 0 hr 2 min 28 sec) 
Heartbeat CPU 0 instructions: 50000000 cycles: 24978028 heartbeat IPC: 1.36023 cumulative IPC: 1.3373 (Simulation time: 0 hr 3 min 22 sec) 
Finished CPU 0 instructions: 25000002 cycles: 18694452 cumulative IPC: 1.3373 (Simulation time: 0 hr 3 min 22 sec) 

ChampSim completed all CPUs

Region of Interest Statistics

CPU 0 cumulative IPC: 1.3373 instructions: 25000002 cycles: 18694452
cpu0_DTLB TOTAL     ACCESS:    5228388  HIT:    5103332  MISS:     125056
cpu0_DTLB LOAD      ACCESS:    2643180  HIT:    2529949  MISS:     113231
cpu0_DTLB RFO       ACCESS:    2585208  HIT:    2573383  MISS:      11825
cpu0_DTLB PREFETCH  ACCESS:          0  HIT:          0  MISS:          0
cpu0_DTLB WRITEBACK ACCESS:          0  HIT:          0  MISS:          0
cpu0_DTLB TRANSLATION ACCESS:          0  HIT:          0  MISS:          0
cpu0_DTLB PREFETCH  REQUESTED:          0  ISSUED:          0  USEFUL:          0  USELESS:          0
cpu0_DTLB AVERAGE MISS LATENCY: 9.35082 cycles
cpu0_ITLB TOTAL     ACCESS:    1659017  HIT:    1558015  MISS:     101002
cpu0_ITLB LOAD      ACCESS:    1659017  HIT:    1558015  MISS:     101002
cpu0_ITLB RFO       ACCESS:          0  HIT:          0  MISS:          0
cpu0_ITLB PREFETCH  ACCESS:          0  HIT:          0  MISS:          0
cpu0_ITLB WRITEBACK ACCESS:          0  HIT:          0  MISS:          0
cpu0_ITLB TRANSLATION ACCESS:          0  HIT:          0  MISS:          0
cpu0_ITLB PREFETCH  REQUESTED:          0  ISSUED:          0  USEFUL:          0  USELESS:          0
cpu0_ITLB AVERAGE MISS LATENCY: 9.01408 cycles
cpu0_L1I TOTAL     ACCESS:    3119665  HIT:    2725805  MISS:     393860
cpu0_L1I LOAD      ACCESS:    3119665  HIT:    2725805  MISS:     393860
cpu0_L1I RFO       ACCESS:          0  HIT:          0  MISS:          0
cpu0_L1I PREFETCH  ACCESS:          0  HIT:          0  MISS:          0
cpu0_L1I WRITEBACK ACCESS:          0  HIT:          0  MISS:          0
cpu0_L1I TRANSLATION ACCESS:          0  HIT:          0  MISS:          0
cpu0_L1I PREFETCH  REQUESTED:          0  ISSUED:          0  USEFUL:          0  USELESS:          0
cpu0_L1I AVERAGE MISS LATENCY: 11.4268 cycles
cpu0_STLB TOTAL     ACCESS:     226058  HIT:     225812  MISS:        246
cpu0_STLB LOAD      ACCESS:     214233  HIT:     213989  MISS:        244
cpu0_STLB RFO       ACCESS:      11825  HIT:      11823  MISS:          2
cpu0_STLB PREFETCH  ACCESS:          0  HIT:          0  MISS:          0
cpu0_STLB WRITEBACK ACCESS:          0  HIT:          0  MISS:          0
cpu0_STLB TRANSLATION ACCESS:          0  HIT:          0  MISS:          0
cpu0_STLB PREFETCH  REQUESTED:     214233  ISSUED:          0  USEFUL:          0  USELESS:          0
cpu0_STLB AVERAGE MISS LATENCY: 164.232 cycles
cpu0_L1D TOTAL     ACCESS:   10639593  HIT:   10601950  MISS:      37643
cpu0_L1D LOAD      ACCESS:    3218431  HIT:    3205061  MISS:      13370
cpu0_L1D RFO       ACCESS:    4223760  HIT:    4219125  MISS:       4635
cpu0_L1D PREFETCH  ACCESS:    3197174  HIT:    3177555  MISS:      19619
cpu0_L1D WRITEBACK ACCESS:          0  HIT:          0  MISS:          0
cpu0_L1D TRANSLATION ACCESS:        228  HIT:        209  MISS:         19
cpu0_L1D PREFETCH  REQUESTED:    3219034  ISSUED:    3202224  USEFUL:      12044  USELESS:       7767
cpu0_L1D AVERAGE MISS LATENCY: 49.5411 cycles
cpu0_L2C TOTAL     ACCESS:     439251  HIT:     434806  MISS:       4445
cpu0_L2C LOAD      ACCESS:     407054  HIT:     404656  MISS:       2398
cpu0_L2C RFO       ACCESS:       4632  HIT:       4455  MISS:        177
cpu0_L2C PREFETCH  ACCESS:      19798  HIT:      17937  MISS:       1861
cpu0_L2C WRITEBACK ACCESS:       7748  HIT:       7745  MISS:          3
cpu0_L2C TRANSLATION ACCESS:         19  HIT:         13  MISS:          6
cpu0_L2C PREFETCH  REQUESTED:          0  ISSUED:          0  USEFUL:          0  USELESS:          0
cpu0_L2C AVERAGE MISS LATENCY: 378.363 cycles
LLC TOTAL     ACCESS:       6067  HIT:       2325  MISS:       3742
LLC LOAD      ACCESS:       2398  HIT:        412  MISS:       1986
LLC RFO       ACCESS:        177  HIT:         30  MISS:        147
LLC PREFETCH  ACCESS:       1861  HIT:        260  MISS:       1601
LLC WRITEBACK ACCESS:       1625  HIT:       1620  MISS:          5
LLC TRANSLATION ACCESS:          6  HIT:          3  MISS:          3
LLC PREFETCH  REQUESTED:          0  ISSUED:          0  USEFUL:          0  USELESS:          0
LLC AVERAGE MISS LATENCY: 424.516 cycles

DRAM Statistics
 CHANNEL 0
 RQ ROW_BUFFER_HIT:        220  ROW_BUFFER_MISS:       3517
 DBUS AVG_CONGESTED_CYCLE:     3.9491
 WQ ROW_BUFFER_HIT:         38  ROW_BUFFER_MISS:       2458  FULL:          0


CPU 0 Branch Prediction Accuracy: 97.4984% MPKI: 4.21604 Average ROB Occupancy at Mispredict: 234.569
Branch type MPKI
BRANCH_DIRECT_JUMP: 0.001
BRANCH_INDIRECT: 0
BRANCH_CONDITIONAL: 4.0288
BRANCH_DIRECT_CALL: 0.00296
BRANCH_INDIRECT_CALL: 0.00768
BRANCH_RETURN: 0.1756

