
*** ChampSim Multicore Out-of-Order Simulator ***

Warmup Instructions: 25000000
Simulation Instructions: 25000000
Number of CPUs: 1
Off-chip DRAM Size: 4 GiB Channels: 1 Width: 64-bit Data Rate: 3200 MT/s

VirtualMemory physical capacity: 8588881920 num_ppages: 2096895
VirtualMemory page size: 4096 log2_page_size: 12

CPU 0 runs ipc1_public/server_001.champsimtrace.xz
Basic BTB sets: 1024 ways: 8 indirect buffer size: 4096 RAS size: 64
CPU 0 Entangling prefetcher
cpu0_STLB next line prefetcher
cpu0_L1D next line prefetcher
WARNING: The extended signature CACHE::prefetch_line(ip, base_addr, pf_addr, fill_this_level, prefetch_metadata) is deprecated.
WARNING: Use CACHE::prefetch_line(pf_addr, fill_this_level, prefetch_metadata) instead.
Heartbeat CPU 0 instructions: 10000001 cycles: 2533462 heartbeat IPC: 3.94717 cumulative IPC: 3.94717 (Simulation time: 0 hr 0 min 52 sec) 
Heartbeat CPU 0 instructions: 20000003 cycles: 5075742 heartbeat IPC: 3.93348 cumulative IPC: 3.94031 (Simulation time: 0 hr 1 min 43 sec) 

Warmup complete CPU 0 instructions: 25000003 cycles: 6346554 (Simulation time: 0 hr 2 min 7 sec) 

Heartbeat CPU 0 instructions: 30000003 cycles: 9496777 heartbeat IPC: 2.26191 cumulative IPC: 1.58719 (Simulation time: 0 hr 2 min 49 sec) 
Heartbeat CPU 0 instructions: 40000001 cycles: 17026936 heartbeat IPC: 1.32799 cumulative IPC: 1.40444 (Simulation time: 0 hr 4 min 26 sec) 
Heartbeat CPU 0 instructions: 50000004 cycles: 24089673 heartbeat IPC: 1.41588 cumulative IPC: 1.409 (Simulation time: 0 hr 5 min 57 sec) 
Finished CPU 0 instructions: 25000001 cycles: 17743119 cumulative IPC: 1.409 (Simulation time: 0 hr 5 min 57 sec) 

ChampSim completed all CPUs

Region of Interest Statistics

CPU 0 cumulative IPC: 1.409 instructions: 25000001 cycles: 17743119
cpu0_DTLB TOTAL     ACCESS:    4763672  HIT:    4608681  MISS:     154991
cpu0_DTLB LOAD      ACCESS:    2991758  HIT:    2847363  MISS:     144395
cpu0_DTLB RFO       ACCESS:    1771914  HIT:    1761318  MISS:      10596
cpu0_DTLB PREFETCH  ACCESS:          0  HIT:          0  MISS:          0
cpu0_DTLB WRITEBACK ACCESS:          0  HIT:          0  MISS:          0
cpu0_DTLB TRANSLATION ACCESS:          0  HIT:          0  MISS:          0
cpu0_DTLB PREFETCH  REQUESTED:          0  ISSUED:          0  USEFUL:          0  USELESS:          0
cpu0_DTLB AVERAGE MISS LATENCY: 14.4787 cycles
cpu0_ITLB TOTAL     ACCESS:    1205773  HIT:    1153931  MISS:      51842
cpu0_ITLB LOAD      ACCESS:    1205773  HIT:    1153931  MISS:      51842
cpu0_ITLB RFO       ACCESS:          0  HIT:          0  MISS:          0
cpu0_ITLB PREFETCH  ACCESS:          0  HIT:          0  MISS:          0
cpu0_ITLB WRITEBACK ACCESS:          0  HIT:          0  MISS:          0
cpu0_ITLB TRANSLATION ACCESS:          0  HIT:          0  MISS:          0
cpu0_ITLB PREFETCH  REQUESTED:          0  ISSUED:          0  USEFUL:          0  USELESS:          0
cpu0_ITLB AVERAGE MISS LATENCY: 10.3549 cycles
cpu0_L1I TOTAL     ACCESS:    9771163  HIT:    9387854  MISS:     383309
cpu0_L1I LOAD      ACCESS:    2586271  HIT:    2551282  MISS:      34989
cpu0_L1I RFO       ACCESS:          0  HIT:          0  MISS:          0
cpu0_L1I PREFETCH  ACCESS:    7184892  HIT:    6836572  MISS:     348320
cpu0_L1I WRITEBACK ACCESS:          0  HIT:          0  MISS:          0
cpu0_L1I TRANSLATION ACCESS:          0  HIT:          0  MISS:          0
cpu0_L1I PREFETCH  REQUESTED:    9462577  ISSUED:    7204021  USEFUL:     324201  USELESS:      35593
cpu0_L1I AVERAGE MISS LATENCY: 33.5388 cycles
cpu0_STLB TOTAL     ACCESS:     206833  HIT:     191377  MISS:      15456
cpu0_STLB LOAD      ACCESS:     196237  HIT:     181752  MISS:      14485
cpu0_STLB RFO       ACCESS:      10596  HIT:       9625  MISS:        971
cpu0_STLB PREFETCH  ACCESS:          0  HIT:          0  MISS:          0
cpu0_STLB WRITEBACK ACCESS:          0  HIT:          0  MISS:          0
cpu0_STLB TRANSLATION ACCESS:          0  HIT:          0  MISS:          0
cpu0_STLB PREFETCH  REQUESTED:     196237  ISSUED:          0  USEFUL:          0  USELESS:          0
cpu0_STLB AVERAGE MISS LATENCY: 59.1851 cycles
cpu0_L1D TOTAL     ACCESS:    8568775  HIT:    8290973  MISS:     277802
cpu0_L1D LOAD      ACCESS:    3019262  HIT:    2902641  MISS:     116621
cpu0_L1D RFO       ACCESS:    2603677  HIT:    2557425  MISS:      46252
cpu0_L1D PREFETCH  ACCESS:    2930801  HIT:    2818633  MISS:     112168
cpu0_L1D WRITEBACK ACCESS:          0  HIT:          0  MISS:          0
cpu0_L1D TRANSLATION ACCESS:      15035  HIT:      12274  MISS:       2761
cpu0_L1D PREFETCH  REQUESTED:    3043606  ISSUED:    3031694  USEFUL:     112708  USELESS:      24669
cpu0_L1D AVERAGE MISS LATENCY: 162.356 cycles
cpu0_L2C TOTAL     ACCESS:     769948  HIT:     507778  MISS:     262170
cpu0_L2C LOAD      ACCESS:     115837  HIT:      51297  MISS:      64540
cpu0_L2C RFO       ACCESS:      45149  HIT:       4909  MISS:      40240
cpu0_L2C PREFETCH  ACCESS:     497357  HIT:     341213  MISS:     156144
cpu0_L2C WRITEBACK ACCESS:     108844  HIT:     108561  MISS:        283
cpu0_L2C TRANSLATION ACCESS:       2761  HIT:       1798  MISS:        963
cpu0_L2C PREFETCH  REQUESTED:          0  ISSUED:          0  USEFUL:          0  USELESS:          0
cpu0_L2C AVERAGE MISS LATENCY: 213.787 cycles
LLC TOTAL     ACCESS:     354045  HIT:     217766  MISS:     136279
LLC LOAD      ACCESS:      64539  HIT:      35642  MISS:      28897
LLC RFO       ACCESS:      40239  HIT:       4037  MISS:      36202
LLC PREFETCH  ACCESS:     156144  HIT:      85123  MISS:      71021
LLC WRITEBACK ACCESS:      92160  HIT:      92130  MISS:         30
LLC TRANSLATION ACCESS:        963  HIT:        834  MISS:        129
LLC PREFETCH  REQUESTED:          0  ISSUED:          0  USEFUL:          0  USELESS:          0
LLC AVERAGE MISS LATENCY: 370.92 cycles
CPU 0 L1I Entangling prefetcher final stats
IP accesses: 1f9c 7e700 26949 / 2587601
IP misses: 2370 8dc00 331 / 36319
IP hits: 0 0 0 / 0
IP late: 2370 8dc00 331 / 24798
IP wrong: ec0 3b000 552 / 78812
miss rate: 0.0140358
coverage: 0
coverage_late: 0.682783
accuracy: 0
accuracy_late: 0.23934
discarded: 0
evicts entangled j table: 0
evicts entangled k table: 5552
max bb size: 111
formats: 537 1666 5621 1117 737 1555 0 
hist_lookups: 3930 4620 3884 3223 2655 1981 1412 1041 847 655 457 351 273 164 96 0 6 1450 
hist_lookups_evict: 0.0221852 %
hist_lookups_shortlat: 5.36143 %
bb_found_hist: 0 420572 195110 97034 97204 56917 39188 21426 24854 14429 6303 2205 3524 6458 6268 264 2872 2963 142 338 493 3248 410 0 0 1 8 9 0 0 0 0 0 8 0 0 0 0 0 0 0 0 4 0 0 0 0 8 0 0 0 0 0 0 0 0 0 0 0 0 0 0 0 0 
bb_found_summary: 2988010 1002260 2.98127
entangled_found_hist: 0 263122 298639 357714 13071 4516 237 0 
entangled_found_summary: 2009828 937299 2.14428
bb_ent_found_hist: 0 705085 276534 144779 111671 118354 105830 19636 21357 12748 8604 3459 1006 10830 1119 437 8564 9594 597 3351 2223 4544 980 0 0 7 8 25 0 0 0 0 0 45 0 0 0 0 0 0 0 0 414 0 0 0 0 15 0 0 0 0 0 0 0 0 0 0 0 0 0 0 0 0 
bb_ent_found_summary: 4644753 1571816 2.95502

DRAM Statistics
 CHANNEL 0
 RQ ROW_BUFFER_HIT:      25326  ROW_BUFFER_MISS:     110861
 DBUS AVG_CONGESTED_CYCLE:    3.92632
 WQ ROW_BUFFER_HIT:       9308  ROW_BUFFER_MISS:      65368  FULL:          0


CPU 0 Branch Prediction Accuracy: 96.6016% MPKI: 5.79844 Average ROB Occupancy at Mispredict: 199.767
Branch type MPKI
BRANCH_DIRECT_JUMP: 0.0432
BRANCH_INDIRECT: 0.12976
BRANCH_CONDITIONAL: 4.13248
BRANCH_DIRECT_CALL: 0.06328
BRANCH_INDIRECT_CALL: 0.0208
BRANCH_RETURN: 1.40892

