
*** ChampSim Multicore Out-of-Order Simulator ***

Warmup Instructions: 25000000
Simulation Instructions: 25000000
Number of CPUs: 1
Off-chip DRAM Size: 4 GiB Channels: 1 Width: 64-bit Data Rate: 3200 MT/s

VirtualMemory physical capacity: 8588881920 num_ppages: 2096895
VirtualMemory page size: 4096 log2_page_size: 12

CPU 0 runs ipc1_public/server_003.champsimtrace.xz
Basic BTB sets: 1024 ways: 8 indirect buffer size: 4096 RAS size: 64
cpu0_STLB next line prefetcher
cpu0_L1D next line prefetcher
WARNING: The extended signature CACHE::prefetch_line(ip, base_addr, pf_addr, fill_this_level, prefetch_metadata) is deprecated.
WARNING: Use CACHE::prefetch_line(pf_addr, fill_this_level, prefetch_metadata) instead.
Heartbeat CPU 0 instructions: 10000004 cycles: 2645251 heartbeat IPC: 3.78036 cumulative IPC: 3.78036 (Simulation time: 0 hr 0 min 38 sec) 
Heartbeat CPU 0 instructions: 20000000 cycles: 5280524 heartbeat IPC: 3.79467 cumulative IPC: 3.7875 (Simulation time: 0 hr 1 min 18 sec) 

Warmup complete CPU 0 instructions: 25000001 cycles: 6603706 (Simulation time: 0 hr 1 min 36 sec) 

Heartbeat CPU 0 instructions: 30000004 cycles: 10290664 heartbeat IPC: 1.99595 cumulative IPC: 1.35613 (Simulation time: 0 hr 2 min 13 sec) 
Heartbeat CPU 0 instructions: 40000004 cycles: 19436972 heartbeat IPC: 1.09334 cumulative IPC: 1.16884 (Simulation time: 0 hr 3 min 33 sec) 
Heartbeat CPU 0 instructions: 50000002 cycles: 27828037 heartbeat IPC: 1.19174 cumulative IPC: 1.17789 (Simulation time: 0 hr 4 min 53 sec) 
Finished CPU 0 instructions: 25000001 cycles: 21224331 cumulative IPC: 1.17789 (Simulation time: 0 hr 4 min 53 sec) 

ChampSim completed all CPUs

Region of Interest Statistics

CPU 0 cumulative IPC: 1.17789 instructions: 25000001 cycles: 21224331
cpu0_DTLB TOTAL     ACCESS:    5238207  HIT:    5021121  MISS:     217086
cpu0_DTLB LOAD      ACCESS:    3703934  HIT:    3500085  MISS:     203849
cpu0_DTLB RFO       ACCESS:    1534273  HIT:    1521036  MISS:      13237
cpu0_DTLB PREFETCH  ACCESS:          0  HIT:          0  MISS:          0
cpu0_DTLB WRITEBACK ACCESS:          0  HIT:          0  MISS:          0
cpu0_DTLB TRANSLATION ACCESS:          0  HIT:          0  MISS:          0
cpu0_DTLB PREFETCH  REQUESTED:          0  ISSUED:          0  USEFUL:          0  USELESS:          0
cpu0_DTLB AVERAGE MISS LATENCY: 11.1728 cycles
cpu0_ITLB TOTAL     ACCESS:    2042884  HIT:    1972408  MISS:      70476
cpu0_ITLB LOAD      ACCESS:    2042884  HIT:    1972408  MISS:      70476
cpu0_ITLB RFO       ACCESS:          0  HIT:          0  MISS:          0
cpu0_ITLB PREFETCH  ACCESS:          0  HIT:          0  MISS:          0
cpu0_ITLB WRITEBACK ACCESS:          0  HIT:          0  MISS:          0
cpu0_ITLB TRANSLATION ACCESS:          0  HIT:          0  MISS:          0
cpu0_ITLB PREFETCH  REQUESTED:          0  ISSUED:          0  USEFUL:          0  USELESS:          0
cpu0_ITLB AVERAGE MISS LATENCY: 10.4242 cycles
cpu0_L1I TOTAL     ACCESS:    2713835  HIT:    2248163  MISS:     465672
cpu0_L1I LOAD      ACCESS:    2713835  HIT:    2248163  MISS:     465672
cpu0_L1I RFO       ACCESS:          0  HIT:          0  MISS:          0
cpu0_L1I PREFETCH  ACCESS:          0  HIT:          0  MISS:          0
cpu0_L1I WRITEBACK ACCESS:          0  HIT:          0  MISS:          0
cpu0_L1I TRANSLATION ACCESS:          0  HIT:          0  MISS:          0
cpu0_L1I PREFETCH  REQUESTED:          0  ISSUED:          0  USEFUL:          0  USELESS:          0
cpu0_L1I AVERAGE MISS LATENCY: 24.5071 cycles
cpu0_STLB TOTAL     ACCESS:     287562  HIT:     261044  MISS:      26518
cpu0_STLB LOAD      ACCESS:     274325  HIT:     249191  MISS:      25134
cpu0_STLB RFO       ACCESS:      13237  HIT:      11853  MISS:       1384
cpu0_STLB PREFETCH  ACCESS:          0  HIT:          0  MISS:          0
cpu0_STLB WRITEBACK ACCESS:          0  HIT:          0  MISS:          0
cpu0_STLB TRANSLATION ACCESS:          0  HIT:          0  MISS:          0
cpu0_STLB PREFETCH  REQUESTED:     274325  ISSUED:          0  USEFUL:          0  USELESS:          0
cpu0_STLB AVERAGE MISS LATENCY: 21.3368 cycles
cpu0_L1D TOTAL     ACCESS:   10054496  HIT:    9418314  MISS:     636182
cpu0_L1D LOAD      ACCESS:    3890184  HIT:    3600265  MISS:     289919
cpu0_L1D RFO       ACCESS:    2351119  HIT:    2283413  MISS:      67706
cpu0_L1D PREFETCH  ACCESS:    3787317  HIT:    3513064  MISS:     274253
cpu0_L1D WRITEBACK ACCESS:          0  HIT:          0  MISS:          0
cpu0_L1D TRANSLATION ACCESS:      25876  HIT:      21572  MISS:       4304
cpu0_L1D PREFETCH  REQUESTED:    3920583  ISSUED:    3899375  USEFUL:     204199  USELESS:      85716
cpu0_L1D AVERAGE MISS LATENCY: 41.0267 cycles
cpu0_L2C TOTAL     ACCESS:    1243919  HIT:     861599  MISS:     382320
cpu0_L2C LOAD      ACCESS:     742871  HIT:     504104  MISS:     238767
cpu0_L2C RFO       ACCESS:      64765  HIT:      20242  MISS:      44523
cpu0_L2C PREFETCH  ACCESS:     289872  HIT:     192214  MISS:      97658
cpu0_L2C WRITEBACK ACCESS:     142107  HIT:     141674  MISS:        433
cpu0_L2C TRANSLATION ACCESS:       4304  HIT:       3365  MISS:        939
cpu0_L2C PREFETCH  REQUESTED:          0  ISSUED:          0  USEFUL:          0  USELESS:          0
cpu0_L2C AVERAGE MISS LATENCY: 69.6282 cycles
LLC TOTAL     ACCESS:     463359  HIT:     389891  MISS:      73468
LLC LOAD      ACCESS:     238764  HIT:     215952  MISS:      22812
LLC RFO       ACCESS:      44521  HIT:      17132  MISS:      27389
LLC PREFETCH  ACCESS:      97657  HIT:      74573  MISS:      23084
LLC WRITEBACK ACCESS:      81478  HIT:      81362  MISS:        116
LLC TRANSLATION ACCESS:        939  HIT:        872  MISS:         67
LLC PREFETCH  REQUESTED:          0  ISSUED:          0  USEFUL:          0  USELESS:          0
LLC AVERAGE MISS LATENCY: 253.172 cycles

DRAM Statistics
 CHANNEL 0
 RQ ROW_BUFFER_HIT:      17639  ROW_BUFFER_MISS:      55710
 DBUS AVG_CONGESTED_CYCLE:     3.9032
 WQ ROW_BUFFER_HIT:       5381  ROW_BUFFER_MISS:      28544  FULL:          0


CPU 0 Branch Prediction Accuracy: 93.3397% MPKI: 13.8515 Average ROB Occupancy at Mispredict: 124.237
Branch type MPKI
BRANCH_DIRECT_JUMP: 0.19824
BRANCH_INDIRECT: 0.51732
BRANCH_CONDITIONAL: 9.45216
BRANCH_DIRECT_CALL: 0.37436
BRANCH_INDIRECT_CALL: 2.6942
BRANCH_RETURN: 0.61524

