
*** ChampSim Multicore Out-of-Order Simulator ***

Warmup Instructions: 25000000
Simulation Instructions: 25000000
Number of CPUs: 1
Off-chip DRAM Size: 4 GiB Channels: 1 Width: 64-bit Data Rate: 3200 MT/s

VirtualMemory physical capacity: 8588881920 num_ppages: 2096895
VirtualMemory page size: 4096 log2_page_size: 12

CPU 0 runs ipc1_public/server_004.champsimtrace.xz
Basic BTB sets: 1024 ways: 8 indirect buffer size: 4096 RAS size: 64
CPU 0 Entangling prefetcher
cpu0_STLB arbitrary stride prefetcher
cpu0_L1D next line prefetcher
WARNING: The extended signature CACHE::prefetch_line(ip, base_addr, pf_addr, fill_this_level, prefetch_metadata) is deprecated.
WARNING: Use CACHE::prefetch_line(pf_addr, fill_this_level, prefetch_metadata) instead.
Heartbeat CPU 0 instructions: 10000002 cycles: 2533850 heartbeat IPC: 3.94656 cumulative IPC: 3.94656 (Simulation time: 0 hr 0 min 26 sec) 
Heartbeat CPU 0 instructions: 20000001 cycles: 5090286 heartbeat IPC: 3.9117 cumulative IPC: 3.92905 (Simulation time: 0 hr 0 min 52 sec) 

Warmup complete CPU 0 instructions: 25000001 cycles: 6743804 (Simulation time: 0 hr 1 min 12 sec) 

Heartbeat CPU 0 instructions: 30000000 cycles: 17973485 heartbeat IPC: 0.776205 cumulative IPC: 0.445249 (Simulation time: 0 hr 1 min 56 sec) 
Heartbeat CPU 0 instructions: 40000000 cycles: 28171828 heartbeat IPC: 0.980551 cumulative IPC: 0.700018 (Simulation time: 0 hr 2 min 48 sec) 
Heartbeat CPU 0 instructions: 50000000 cycles: 33973008 heartbeat IPC: 1.72379 cumulative IPC: 0.918132 (Simulation time: 0 hr 3 min 28 sec) 
Finished CPU 0 instructions: 25000003 cycles: 27229205 cumulative IPC: 0.918132 (Simulation time: 0 hr 3 min 28 sec) 

ChampSim completed all CPUs

Region of Interest Statistics

CPU 0 cumulative IPC: 0.918132 instructions: 25000003 cycles: 27229205
cpu0_DTLB TOTAL     ACCESS:    5200629  HIT:    4175732  MISS:    1024897
cpu0_DTLB LOAD      ACCESS:    3730406  HIT:    2720336  MISS:    1010070
cpu0_DTLB RFO       ACCESS:    1470223  HIT:    1455396  MISS:      14827
cpu0_DTLB PREFETCH  ACCESS:          0  HIT:          0  MISS:          0
cpu0_DTLB WRITEBACK ACCESS:          0  HIT:          0  MISS:          0
cpu0_DTLB TRANSLATION ACCESS:          0  HIT:          0  MISS:          0
cpu0_DTLB PREFETCH  REQUESTED:          0  ISSUED:          0  USEFUL:          0  USELESS:          0
cpu0_DTLB AVERAGE MISS LATENCY: 9.55177 cycles
cpu0_ITLB TOTAL     ACCESS:    1826454  HIT:    1749843  MISS:      76611
cpu0_ITLB LOAD      ACCESS:    1826454  HIT:    1749843  MISS:      76611
cpu0_ITLB RFO       ACCESS:          0  HIT:          0  MISS:          0
cpu0_ITLB PREFETCH  ACCESS:          0  HIT:          0  MISS:          0
cpu0_ITLB WRITEBACK ACCESS:          0  HIT:          0  MISS:          0
cpu0_ITLB TRANSLATION ACCESS:          0  HIT:          0  MISS:          0
cpu0_ITLB PREFETCH  REQUESTED:          0  ISSUED:          0  USEFUL:          0  USELESS:          0
cpu0_ITLB AVERAGE MISS LATENCY: 11.2024 cycles
cpu0_L1I TOTAL     ACCESS:    9499939  HIT:    8804771  MISS:     695168
cpu0_L1I LOAD      ACCESS:    2630671  HIT:    2569086  MISS:      61585
cpu0_L1I RFO       ACCESS:          0  HIT:          0  MISS:          0
cpu0_L1I PREFETCH  ACCESS:    6869268  HIT:    6235685  MISS:     633583
cpu0_L1I WRITEBACK ACCESS:          0  HIT:          0  MISS:          0
cpu0_L1I TRANSLATION ACCESS:          0  HIT:          0  MISS:          0
cpu0_L1I PREFETCH  REQUESTED:    8639609  ISSUED:    6902753  USEFUL:     569133  USELESS:      85624
cpu0_L1I AVERAGE MISS LATENCY: 20.5087 cycles
cpu0_STLB TOTAL     ACCESS:    1101508  HIT:    1052067  MISS:      49441
cpu0_STLB LOAD      ACCESS:    1086681  HIT:    1039064  MISS:      47617
cpu0_STLB RFO       ACCESS:      14827  HIT:      13003  MISS:       1824
cpu0_STLB PREFETCH  ACCESS:          0  HIT:          0  MISS:          0
cpu0_STLB WRITEBACK ACCESS:          0  HIT:          0  MISS:          0
cpu0_STLB TRANSLATION ACCESS:          0  HIT:          0  MISS:          0
cpu0_STLB PREFETCH  REQUESTED:        115  ISSUED:          0  USEFUL:          0  USELESS:          0
cpu0_STLB AVERAGE MISS LATENCY: 14.6606 cycles
cpu0_L1D TOTAL     ACCESS:   11291847  HIT:    8575599  MISS:    2716248
cpu0_L1D LOAD      ACCESS:    4507977  HIT:    3153666  MISS:    1354311
cpu0_L1D RFO       ACCESS:    2291243  HIT:    2231158  MISS:      60085
cpu0_L1D PREFETCH  ACCESS:    4444720  HIT:    3149742  MISS:    1294978
cpu0_L1D WRITEBACK ACCESS:          0  HIT:          0  MISS:          0
cpu0_L1D TRANSLATION ACCESS:      47907  HIT:      41033  MISS:       6874
cpu0_L1D PREFETCH  REQUESTED:    4524956  ISSUED:    4510782  USEFUL:     142049  USELESS:    1164778
cpu0_L1D AVERAGE MISS LATENCY: 15.0946 cycles
cpu0_L2C TOTAL     ACCESS:    3536602  HIT:    3037866  MISS:     498736
cpu0_L2C LOAD      ACCESS:    1383089  HIT:    1264279  MISS:     118810
cpu0_L2C RFO       ACCESS:      59771  HIT:      39495  MISS:      20276
cpu0_L2C PREFETCH  ACCESS:    1961642  HIT:    1604375  MISS:     357267
cpu0_L2C WRITEBACK ACCESS:     125226  HIT:     124383  MISS:        843
cpu0_L2C TRANSLATION ACCESS:       6874  HIT:       5334  MISS:       1540
cpu0_L2C PREFETCH  REQUESTED:          0  ISSUED:          0  USEFUL:          0  USELESS:          0
cpu0_L2C AVERAGE MISS LATENCY: 36.4511 cycles
LLC TOTAL     ACCESS:     561313  HIT:     521479  MISS:      39834
LLC LOAD      ACCESS:     118799  HIT:     106881  MISS:      11918
LLC RFO       ACCESS:      20274  HIT:      16399  MISS:       3875
LLC PREFETCH  ACCESS:     357264  HIT:     333280  MISS:      23984
LLC WRITEBACK ACCESS:      63436  HIT:      63427  MISS:          9
LLC TRANSLATION ACCESS:       1540  HIT:       1492  MISS:         48
LLC PREFETCH  REQUESTED:          0  ISSUED:          0  USEFUL:          0  USELESS:          0
LLC AVERAGE MISS LATENCY: 193.836 cycles
CPU 0 L1I Entangling prefetcher final stats
IP accesses: 10d8 43600 36271 / 2632968
IP misses: 5e6c 179b00 168 / 63882
IP hits: 0 0 0 / 0
IP late: c172 305c80 148 / 36288
IP wrong: 44f1 113c40 476 / 181528
miss rate: 0.0242624
coverage: 0
coverage_late: 0.568047
accuracy: 0
accuracy_late: 0.166599
discarded: 0
evicts entangled j table: 0
evicts entangled k table: 17959
max bb size: 62
formats: 0 25788 31 0 0 2458 0 
hist_lookups: 11993 15287 12455 9533 6834 4797 3130 2036 1264 740 515 322 217 131 70 0 3 1323 
hist_lookups_evict: 0.00424628 %
hist_lookups_shortlat: 1.87261 %
bb_found_hist: 0 644733 257052 156942 49788 33040 14817 8828 11221 6420 8761 4232 2813 2423 3816 1630 415 846 148 61 172 26 63 24 80 0 0 13 95 0 38 0 0 24 41 0 0 0 0 0 0 0 0 0 0 0 0 0 38 0 0 0 0 0 0 0 0 0 0 0 0 0 76 0 
bb_found_summary: 2615114 1208676 2.16362
entangled_found_hist: 0 291485 1029096 3165 836 544 83 0 
entangled_found_summary: 2365734 1325209 1.78518
bb_ent_found_hist: 0 769287 456312 223214 102909 52989 35959 10975 12303 3759 6195 5153 3479 1502 8831 1327 909 1107 6 48 319 44 537 42 0 0 0 34 1105 0 77 0 0 36 80 0 0 0 0 0 0 0 0 0 0 0 0 0 38 0 0 0 0 0 0 0 0 0 0 0 0 0 94 0 
bb_ent_found_summary: 3876609 1698670 2.28214

DRAM Statistics
 CHANNEL 0
 RQ ROW_BUFFER_HIT:       7272  ROW_BUFFER_MISS:      32543
 DBUS AVG_CONGESTED_CYCLE:    3.81006
 WQ ROW_BUFFER_HIT:       2563  ROW_BUFFER_MISS:      10226  FULL:          0


CPU 0 Branch Prediction Accuracy: 96.4059% MPKI: 7.9138 Average ROB Occupancy at Mispredict: 206.542
Branch type MPKI
BRANCH_DIRECT_JUMP: 0.22428
BRANCH_INDIRECT: 0.34604
BRANCH_CONDITIONAL: 5.86076
BRANCH_DIRECT_CALL: 0.41356
BRANCH_INDIRECT_CALL: 0.12748
BRANCH_RETURN: 0.94168

